@<TRIPOS>MOLECULE
*****
 21 22 0 0 0
SMALL
GASTEIGER

@<TRIPOS>ATOM
      1 C          -1.2150   -4.3700   -3.3780 C.ar    1  UNL1        0.0043
      2 C          -3.1350   -2.9780   -3.1990 C.ar    1  UNL1        0.0043
      3 C          -0.8010   -0.6870   -0.3450 C.2     1  UNL1        0.3464
      4 C          -2.2560   -2.1570    5.5550 C.ar    1  UNL1       -0.0219
      5 C          -2.8130   -2.8840    6.8250 C.3     1  UNL1        0.0310
      6 C          -3.2390   -5.4270   -3.6440 C.ar    1  UNL1       -0.0218
      7 C          -1.2400   -0.0680    2.0290 C.3     1  UNL1        0.1432
      8 C          -4.1750   -6.6650   -3.7750 C.3     1  UNL1        0.0310
      9 C          -1.8030   -3.1200   -3.0610 C.ar    1  UNL1        0.0555
     10 O           0.4490   -0.6250   -0.4210 O.2     1  UNL1       -0.2487
     11 C          -2.8460   -1.1940    3.4150 C.ar    1  UNL1       -0.0029
     12 C          -0.9180   -2.1450   -2.4560 C.2     1  UNL1        0.2726
     13 C          -3.9600   -4.1690   -3.4800 C.ar    1  UNL1       -0.0041
     14 O           0.2870   -2.1020   -2.6740 O.2     1  UNL1       -0.2679
     15 C          -0.5550   -1.2510    4.0390 C.ar    1  UNL1       -0.0029
     16 N          -1.4220   -1.3580   -1.4080 N.am    1  UNL1       -0.1224
     17 C          -0.8990   -1.9200    5.2890 C.ar    1  UNL1       -0.0045
     18 C          -1.5590   -0.8410    3.2060 C.ar    1  UNL1       -0.0005
     19 C          -3.1440   -1.8850    4.6020 C.ar    1  UNL1       -0.0045
     20 C          -1.9270   -5.5150   -3.6580 C.ar    1  UNL1       -0.0041
     21 N          -1.5030   -0.1790    0.7630 N.am    1  UNL1       -0.1820
@<TRIPOS>BOND
     1     1     9   ar
     2     2     9   ar
     3     3    21   am
     4     4     5    1
     5     6    13   ar
     6     7    18    1
     7     8     6    1
     8     9    12    1
     9    10     3    2
    10    11    19   ar
    11    12    16   am
    12    13     2   ar
    13    14    12    2
    14    15    17   ar
    15    16     3   am
    16    17     4   ar
    17    18    11   ar
    18    18    15   ar
    19    19     4   ar
    20    20     6   ar
    21    20     1   ar
    22    21     7    1
