
     RDKit          3D

 21 22  0  0  0  0  0  0  0  0999 V2000
   -1.2150   -4.3700   -3.3780 C   0  0  0  0  0  0  0  0  0  0  0  0
   -3.1350   -2.9780   -3.1990 C   0  0  0  0  0  0  0  0  0  0  0  0
   -0.8010   -0.6870   -0.3450 C   0  0  0  0  0  0  0  0  0  0  0  0
   -2.2560   -2.1570    5.5550 C   0  0  0  0  0  0  0  0  0  0  0  0
   -2.8130   -2.8840    6.8250 C   0  0  0  0  0  0  0  0  0  0  0  0
   -3.2390   -5.4270   -3.6440 C   0  0  0  0  0  0  0  0  0  0  0  0
   -1.2400   -0.0680    2.0290 C   0  0  0  0  0  0  0  0  0  0  0  0
   -4.1750   -6.6650   -3.7750 C   0  0  0  0  0  0  0  0  0  0  0  0
   -1.8030   -3.1200   -3.0610 C   0  0  0  0  0  0  0  0  0  0  0  0
    0.4490   -0.6250   -0.4210 O   0  0  0  0  0  0  0  0  0  0  0  0
   -2.8460   -1.1940    3.4150 C   0  0  0  0  0  0  0  0  0  0  0  0
   -0.9180   -2.1450   -2.4560 C   0  0  0  0  0  0  0  0  0  0  0  0
   -3.9600   -4.1690   -3.4800 C   0  0  0  0  0  0  0  0  0  0  0  0
    0.2870   -2.1020   -2.6740 O   0  0  0  0  0  0  0  0  0  0  0  0
   -0.5550   -1.2510    4.0390 C   0  0  0  0  0  0  0  0  0  0  0  0
   -1.4220   -1.3580   -1.4080 N   0  0  0  0  0  0  0  0  0  0  0  0
   -0.8990   -1.9200    5.2890 C   0  0  0  0  0  0  0  0  0  0  0  0
   -1.5590   -0.8410    3.2060 C   0  0  0  0  0  0  0  0  0  0  0  0
   -3.1440   -1.8850    4.6020 C   0  0  0  0  0  0  0  0  0  0  0  0
   -1.9270   -5.5150   -3.6580 C   0  0  0  0  0  0  0  0  0  0  0  0
   -1.5030   -0.1790    0.7630 N   0  0  0  0  0  0  0  0  0  0  0  0
  1  9  2  0
  2  9  1  0
  3 21  1  0
  4  5  1  0
  6 13  1  0
  7 18  1  0
  8  6  1  0
  9 12  1  0
 10  3  2  0
 11 19  2  0
 12 16  1  0
 13  2  2  0
 14 12  2  0
 15 17  1  0
 16  3  1  0
 17  4  2  0
 18 11  1  0
 18 15  2  0
 19  4  1  0
 20  6  2  0
 20  1  1  0
 21  7  1  0
M  END
$$$$
