@<TRIPOS>MOLECULE
*****
 39 40 0 0 0
SMALL
GASTEIGER

@<TRIPOS>ATOM
      1 C          -0.8349    2.1825    0.8543 C.ar    1  UNL1       -0.0494
      2 C          -1.4518    2.5484   -0.3435 C.ar    1  UNL1        0.0372
      3 C          -0.7548    2.4740   -1.5541 C.ar    1  UNL1       -0.0494
      4 C           0.5440    1.9701   -1.5760 C.ar    1  UNL1       -0.0581
      5 C           1.1581    1.5579   -0.3872 C.ar    1  UNL1       -0.0504
      6 C           2.5258    0.9420   -0.4083 C.3     1  UNL1       -0.0397
      7 C           0.4683    1.6854    0.8275 C.ar    1  UNL1       -0.0581
      8 C          -2.8474    3.0278   -0.3762 C.2     1  UNL1        0.2514
      9 O          -3.0606    4.0465   -1.0191 O.2     1  UNL1       -0.2697
     10 N          -3.7517    2.2386    0.3409 N.am    1  UNL1       -0.2362
     11 C          -5.1116    2.0938    0.4414 C.2     1  UNL1        0.3064
     12 O          -5.5396    1.1533    1.1181 O.2     1  UNL1       -0.2524
     13 N          -5.9937    2.8994   -0.1804 N.am    1  UNL1       -0.2950
     14 C          -5.7097    3.9752   -1.0867 C.3     1  UNL1        0.0383
     15 C          -6.8826    4.6902   -1.6975 C.ar    1  UNL1       -0.0303
     16 C          -7.9936    5.1059   -0.9571 C.ar    1  UNL1       -0.0568
     17 C          -8.9333    5.9714   -1.5288 C.ar    1  UNL1       -0.0585
     18 C          -8.7752    6.4333   -2.8426 C.ar    1  UNL1       -0.0504
     19 C          -9.6970    7.4693   -3.4128 C.3     1  UNL1       -0.0397
     20 C          -7.6782    5.9993   -3.5891 C.ar    1  UNL1       -0.0585
     21 C          -6.7456    5.1346   -3.0228 C.ar    1  UNL1       -0.0568
     22 H          -1.3465    2.2944    1.8064 H       1  UNL1        0.0625
     23 H          -1.2273    2.7940   -2.4810 H       1  UNL1        0.0625
     24 H           1.0680    1.8946   -2.5265 H       1  UNL1        0.0620
     25 H           2.9936    1.0378   -1.3934 H       1  UNL1        0.0278
     26 H           2.4508   -0.1241   -0.1701 H       1  UNL1        0.0278
     27 H           3.1779    1.4308    0.3219 H       1  UNL1        0.0278
     28 H           0.9462    1.3916    1.7599 H       1  UNL1        0.0620
     29 H          -3.3330    1.4496    0.8149 H       1  UNL1        0.1594
     30 H          -6.9553    2.6069   -0.0746 H       1  UNL1        0.1506
     31 H          -5.1175    3.5347   -1.8943 H       1  UNL1        0.0512
     32 H          -5.1405    4.7276   -0.5350 H       1  UNL1        0.0512
     33 H          -8.1075    4.8121    0.0839 H       1  UNL1        0.0621
     34 H          -9.7699    6.3184   -0.9261 H       1  UNL1        0.0620
     35 H         -10.7099    7.3569   -3.0153 H       1  UNL1        0.0278
     36 H          -9.7567    7.3810   -4.5027 H       1  UNL1        0.0278
     37 H          -9.3242    8.4685   -3.1642 H       1  UNL1        0.0278
     38 H          -7.5154    6.3633   -4.6008 H       1  UNL1        0.0620
     39 H          -5.8706    4.8532   -3.6057 H       1  UNL1        0.0621
@<TRIPOS>BOND
     1     1     2   ar
     2     1     7   ar
     3     1    22    1
     4     2     3   ar
     5     2     8    1
     6     3     4   ar
     7     3    23    1
     8     4     5   ar
     9     4    24    1
    10     5     6    1
    11     5     7   ar
    12     6    25    1
    13     6    26    1
    14     6    27    1
    15     7    28    1
    16     8     9    2
    17     8    10   am
    18    10    11   am
    19    10    29    1
    20    11    12    2
    21    11    13   am
    22    13    14    1
    23    13    30    1
    24    14    15    1
    25    14    31    1
    26    14    32    1
    27    15    16   ar
    28    15    21   ar
    29    16    17   ar
    30    16    33    1
    31    17    18   ar
    32    17    34    1
    33    18    19    1
    34    18    20   ar
    35    19    35    1
    36    19    36    1
    37    19    37    1
    38    20    21   ar
    39    20    38    1
    40    21    39    1
