
     RDKit          3D

 39 40  0  0  0  0  0  0  0  0999 V2000
   -0.8349    2.1825    0.8543 C   0  0  0  0  0  0  0  0  0  0  0  0
   -1.4518    2.5484   -0.3435 C   0  0  0  0  0  0  0  0  0  0  0  0
   -0.7548    2.4740   -1.5541 C   0  0  0  0  0  0  0  0  0  0  0  0
    0.5440    1.9701   -1.5760 C   0  0  0  0  0  0  0  0  0  0  0  0
    1.1581    1.5579   -0.3872 C   0  0  0  0  0  0  0  0  0  0  0  0
    2.5258    0.9420   -0.4083 C   0  0  2  0  0  0  0  0  0  0  0  0
    0.4683    1.6854    0.8275 C   0  0  0  0  0  0  0  0  0  0  0  0
   -2.8474    3.0278   -0.3762 C   0  0  0  0  0  0  0  0  0  0  0  0
   -3.0606    4.0465   -1.0191 O   0  0  0  0  0  0  0  0  0  0  0  0
   -3.7517    2.2386    0.3409 N   0  0  0  0  0  0  0  0  0  0  0  0
   -5.1116    2.0938    0.4414 C   0  0  0  0  0  0  0  0  0  0  0  0
   -5.5396    1.1533    1.1181 O   0  0  0  0  0  0  0  0  0  0  0  0
   -5.9937    2.8994   -0.1804 N   0  0  0  0  0  0  0  0  0  0  0  0
   -5.7097    3.9752   -1.0867 C   0  0  2  0  0  0  0  0  0  0  0  0
   -6.8826    4.6902   -1.6975 C   0  0  0  0  0  0  0  0  0  0  0  0
   -7.9936    5.1059   -0.9571 C   0  0  0  0  0  0  0  0  0  0  0  0
   -8.9333    5.9714   -1.5288 C   0  0  0  0  0  0  0  0  0  0  0  0
   -8.7752    6.4333   -2.8426 C   0  0  0  0  0  0  0  0  0  0  0  0
   -9.6970    7.4693   -3.4128 C   0  0  2  0  0  0  0  0  0  0  0  0
   -7.6782    5.9993   -3.5891 C   0  0  0  0  0  0  0  0  0  0  0  0
   -6.7456    5.1346   -3.0228 C   0  0  0  0  0  0  0  0  0  0  0  0
   -1.3465    2.2944    1.8064 H   0  0  0  0  0  0  0  0  0  0  0  0
   -1.2273    2.7940   -2.4810 H   0  0  0  0  0  0  0  0  0  0  0  0
    1.0680    1.8946   -2.5265 H   0  0  0  0  0  0  0  0  0  0  0  0
    2.9936    1.0378   -1.3934 H   0  0  0  0  0  0  0  0  0  0  0  0
    2.4508   -0.1241   -0.1701 H   0  0  0  0  0  0  0  0  0  0  0  0
    3.1779    1.4308    0.3219 H   0  0  0  0  0  0  0  0  0  0  0  0
    0.9462    1.3916    1.7599 H   0  0  0  0  0  0  0  0  0  0  0  0
   -3.3330    1.4496    0.8149 H   0  0  0  0  0  0  0  0  0  0  0  0
   -6.9553    2.6069   -0.0746 H   0  0  0  0  0  0  0  0  0  0  0  0
   -5.1175    3.5347   -1.8943 H   0  0  0  0  0  0  0  0  0  0  0  0
   -5.1405    4.7276   -0.5350 H   0  0  0  0  0  0  0  0  0  0  0  0
   -8.1075    4.8121    0.0839 H   0  0  0  0  0  0  0  0  0  0  0  0
   -9.7699    6.3184   -0.9261 H   0  0  0  0  0  0  0  0  0  0  0  0
  -10.7099    7.3569   -3.0153 H   0  0  0  0  0  0  0  0  0  0  0  0
   -9.7567    7.3810   -4.5027 H   0  0  0  0  0  0  0  0  0  0  0  0
   -9.3242    8.4685   -3.1642 H   0  0  0  0  0  0  0  0  0  0  0  0
   -7.5154    6.3633   -4.6008 H   0  0  0  0  0  0  0  0  0  0  0  0
   -5.8706    4.8532   -3.6057 H   0  0  0  0  0  0  0  0  0  0  0  0
  1  2  1  0
  1  7  2  0
  1 22  1  0
  2  3  2  0
  2  8  1  0
  3  4  1  0
  3 23  1  0
  4  5  2  0
  4 24  1  0
  5  6  1  0
  5  7  1  0
  6 25  1  6
  6 26  1  0
  6 27  1  0
  7 28  1  0
  8  9  2  0
  8 10  1  0
 10 11  1  0
 10 29  1  0
 11 12  2  0
 11 13  1  0
 13 14  1  0
 13 30  1  0
 14 15  1  0
 14 31  1  6
 14 32  1  0
 15 16  1  0
 15 21  2  0
 16 17  2  0
 16 33  1  0
 17 18  1  0
 17 34  1  0
 18 19  1  0
 18 20  2  0
 19 35  1  1
 19 36  1  0
 19 37  1  0
 20 21  1  0
 20 38  1  0
 21 39  1  0
M  END
$$$$
