@<TRIPOS>MOLECULE
*****
 6 5 0 0 0
SMALL
GASTEIGER

@<TRIPOS>ATOM
      1 C          -2.9160   -3.4440   -4.4950 C.1     1  UNL1        0.2353
      2 O          -5.1580   -2.6050   -4.8100 O.3     1  UNL1       -0.2182
      3 C          -5.4120   -3.7880   -3.6700 C.3     1  UNL1        0.2092
      4 N          -3.1250   -4.1020   -3.6450 N.2     1  UNL1       -0.1902
      5 O          -2.9370   -2.8490   -5.5290 O.2     1  UNL1       -0.2102
      6 C          -4.2200   -4.7210   -3.8990 C.3     1  UNL1        0.1740
@<TRIPOS>BOND
     1     1     4    2
     2     2     3    1
     3     5     1    2
     4     6     3    1
     5     6     4    1
@<TRIPOS>MOLECULE
*****
 18 17 0 0 0
SMALL
GASTEIGER

@<TRIPOS>ATOM
      1 C          -0.3980   -4.8520   -3.3370 C.3     1  UNL1        0.0006
      2 C           1.7450    0.1150   -1.7480 C.3     1  UNL1        0.2084
      3 O          -6.5730   -4.8240   -1.0340 O.co2   1  UNL1       -0.2441
      4 C           0.2940   -1.3970   -2.9620 C.2     1  UNL1        0.3170
      5 C          -0.0440   -3.5020   -4.0550 C.3     1  UNL1        0.0116
      6 CA         -5.8960   -6.5400   -2.6830 C.3     1  UNL1        0.1943
      7 C          -1.8290   -5.2620   -3.5650 C.3     1  UNL1        0.0000
      8 O           0.6550   -0.8910   -1.6780 O.3     1  UNL1       -0.4485
      9 C          -5.0780   -6.8080   -3.2360 C.3     1  UNL1        0.0306
     10 O          -0.5610   -0.8160   -3.5700 O.2     1  UNL1       -0.2501
     11 C           0.9830   -2.6230   -3.3800 C.3     1  UNL1        0.1096
     12 C           1.1470    0.3010    0.3700 C.3     1  UNL1        0.0040
     13 C          -3.7620   -6.9520   -3.1460 C.3     1  UNL1        0.0021
     14 C           1.4170    1.3350   -0.5840 C.3     1  UNL1        0.0474
     15 N          -7.1740   -7.3990   -2.0880 N.3     1  UNL1       -0.1208
     16 C          -6.3820   -5.0380   -2.2360 C.2     1  UNL1        0.3819
     17 OXT        -6.4790   -4.4610   -3.2230 O.co2   1  UNL1       -0.2441
     18 C          -2.6530   -6.4260   -3.4760 C.3     1  UNL1        0.0001
@<TRIPOS>BOND
     1     2     8    1
     2     2    14    1
     3     4     8    1
     4     5    11    1
     5     5     1    1
     6     6    16    1
     7     6    15    1
     8     7    18    1
     9     7     1    1
    10     9    13    1
    11     9     6    1
    12    10     4    2
    13    11     4    1
    14    14    12    1
    15    16     3   ar
    16    17    16   ar
    17    18    13    1
@<TRIPOS>MOLECULE
*****
 8 8 0 0 0
SMALL
GASTEIGER

@<TRIPOS>ATOM
      1 N          -5.9580   -3.5690   -2.2280 N.3     1  UNL1       -0.1854
      2 C          -2.3360   -5.0550   -3.2320 C.3     1  UNL1        0.1822
      3 C          -3.4580   -5.6160   -2.4740 C.3     1  UNL1        0.0371
      4 O          -6.8490   -2.0170   -0.5110 O.3     1  UNL1       -0.2021
      5 C          -4.4440   -5.2090   -1.8920 C.3     1  UNL1        0.0243
      6 O          -2.1590   -3.5340   -2.6170 O.3     1  UNL1       -0.2204
      7 CA         -5.6940   -4.7950   -1.2900 C.3     1  UNL1        0.1227
      8 C          -6.0910   -3.4040   -0.5370 C.3     1  UNL1        0.2417
@<TRIPOS>BOND
     1     1     7    1
     2     1     8    1
     3     2     6    1
     4     2     3    1
     5     3     5    1
     6     7     5    1
     7     7     8    1
     8     8     4    1
@<TRIPOS>MOLECULE
*****
 12 12 0 0 0
SMALL
GASTEIGER

@<TRIPOS>ATOM
      1 C          -5.1750   -5.2590    2.2600 C.ar    1  UNL1        0.2361
      2 O          -4.6240   -2.5250    2.6700 O.2     1  UNL1       -0.2579
      3 C          -5.8800   -3.0260    2.4290 C.3     1  UNL1        0.4849
      4 C          -5.7280   -5.6100    0.1180 C.ar    1  UNL1        0.1256
      5 C          -5.8640   -4.1650    1.6890 C.ar    1  UNL1        0.2522
      6 C          -4.8860   -7.0270   -1.8170 C.3     1  UNL1        0.0080
      7 C          -5.8920   -5.9960   -1.3400 C.3     1  UNL1        0.0576
      8 O          -6.7530   -2.0700    1.9610 O.2     1  UNL1       -0.2579
      9 O          -4.6630   -5.2910    3.4380 O.3     1  UNL1       -0.2833
     10 C          -5.1470   -6.2870    1.1520 C.ar    1  UNL1        0.0780
     11 C          -6.9270   -5.1640   -2.0430 C.3     1  UNL1        0.0080
     12 O          -6.1690   -4.3470    0.4320 O.2     1  UNL1       -0.4513
@<TRIPOS>BOND
     1     1     9    1
     2     3     2    1
     3     4    12   ar
     4     4    10   ar
     5     5     1   ar
     6     5     3    1
     7     6     7    1
     8     7     4    1
     9     8     3    1
    10    10     1   ar
    11    11     7    1
    12    12     5   ar
@<TRIPOS>MOLECULE
*****
 14 13 0 0 0
SMALL
GASTEIGER

@<TRIPOS>ATOM
      1 C          -5.5600   -6.3870    0.0680 C.3     1  UNL1        0.1741
      2 C          -6.3340   -4.0210    0.3510 C.3     1  UNL1        0.1424
      3 C          -4.8610   -6.0790   -3.3030 C.3     1  UNL1        0.1742
      4 O          -4.1180   -6.6440   -2.2220 O.3     1  UNL1       -0.3484
      5 C          -1.7640   -1.1910    2.7380 C.3     1  UNL1        0.1741
      6 O          -0.2950    0.7870    2.8850 O.3     1  UNL1       -0.3484
      7 C          -4.1090   -1.2940    2.0150 C.3     1  UNL1        0.1424
      8 C          -4.9800   -7.0020   -1.2940 C.3     1  UNL1        0.1742
      9 O          -2.9170   -1.7800    2.3080 O.3     1  UNL1       -0.3511
     10 C          -1.4940    0.1750    2.2810 C.3     1  UNL1        0.1742
     11 C          -5.6570   -3.2580    1.4160 C.3     1  UNL1        0.0346
     12 O          -5.3440   -4.8890   -0.1430 O.3     1  UNL1       -0.3511
     13 C           0.7460    1.1540    2.3120 C.3     1  UNL1        0.1742
     14 C          -4.9580   -2.2860    1.5090 C.3     1  UNL1        0.0346
@<TRIPOS>BOND
     1     2    11    1
     2     3     4    1
     3     4     8    1
     4     7     9    1
     5     8     1    1
     6     9     5    1
     7    10     5    1
     8    10     6    1
     9    11    14    1
    10    12     1    1
    11    12     2    1
    12    13     6    1
    13    14     7    1
@<TRIPOS>MOLECULE
*****
 14 14 0 0 0
SMALL
GASTEIGER

@<TRIPOS>ATOM
      1 C          -4.5350   -4.5890    4.0650 C.3     1  UNL1        0.0397
      2 C          -4.0970   -4.4460    2.8240 C.2     1  UNL1        0.0155
      3 C          -3.6910   -4.6800   -1.8320 C.2     1  UNL1       -0.0040
      4 C          -0.7560   -4.3600   -3.4160 C.3     1  UNL1        0.0000
      5 C          -4.9380   -5.0200   -0.0570 C.2     1  UNL1        0.0368
      6 C          -0.2600   -4.4880   -2.0550 C.3     1  UNL1        0.0000
      7 C          -2.6210   -4.7120   -2.3820 C.3     1  UNL1        0.0047
      8 C          -1.7660   -5.2560   -2.8160 C.3     1  UNL1        0.0003
      9 C          -0.3710   -0.7310   -1.2810 C.3     1  UNL1        0.0000
     10 C          -4.1640   -4.6780   -1.1310 C.2     1  UNL1       -0.0146
     11 C          -4.7060   -4.4880    1.5120 C.1     1  UNL1       -0.1055
     12 C           0.8570   -1.4320   -1.5570 C.3     1  UNL1        0.0000
     13 C           0.0620   -2.7850   -1.7630 C.3     1  UNL1        0.0000
     14 C          -3.8710   -4.0690   -1.1320 C.3     1  UNL1        0.0270
@<TRIPOS>BOND
     1     2     1    1
     2     3    10    2
     3     4     8    1
     4     4     6    1
     5     5    11    2
     6     6    13    1
     7     7    14    1
     8     8     7    1
     9     8     6    1
    10    10     5    1
    11    11     2    2
    12    12     9    1
    13    13    12    1
    14    14    10    1
@<TRIPOS>MOLECULE
*****
 8 7 0 0 0
SMALL
GASTEIGER

@<TRIPOS>ATOM
      1 C           0.6490   -2.9860   -3.0640 C.2     1  UNL1        0.3181
      2 C           0.8190   -1.6410   -2.6830 C.3     1  UNL1        0.1212
      3 C          -2.1420   -4.9850   -4.1540 C.2     1  UNL1        0.4085
      4 C          -0.7290   -4.8300   -3.8050 C.3     1  UNL1        0.3212
      5 O          -2.2770   -4.2730   -5.1120 O.co2   1  UNL1       -0.2415
      6 O          -2.9370   -5.2590   -3.1870 O.co2   1  UNL1       -0.2415
      7 O           1.5230   -3.8300   -3.0040 O.2     1  UNL1       -0.2501
      8 O          -0.5400   -3.4130   -3.5740 O.3     1  UNL1       -0.4359
@<TRIPOS>BOND
     1     1     7    2
     2     1     2    1
     3     3     4    1
     4     3     6   ar
     5     4     8    1
     6     5     3   ar
     7     8     1    1
@<TRIPOS>MOLECULE
*****
 10 9 0 0 0
SMALL
GASTEIGER

@<TRIPOS>ATOM
      1 C           1.2010   -2.5620   -3.2180 C.2     1  UNL1        0.1799
      2 O           2.5660    0.6230   -1.7220 O.co2   1  UNL1       -0.2415
      3 O           0.7010   -1.3110   -2.8420 O.2     1  UNL1       -0.4604
      4 C           1.0430    0.4080   -1.2650 C.2     1  UNL1        0.4084
      5 C           0.7710   -0.8860   -1.6250 C.3     1  UNL1        0.3187
      6 O           0.3080    1.2650   -0.7970 O.co2   1  UNL1       -0.2415
      7 O          -1.4450   -3.8770   -4.8450 O.co2   1  UNL1       -0.2404
      8 C           0.5490   -3.5890   -3.6150 C.2     1  UNL1        0.1261
      9 C          -0.6940   -4.3180   -3.9350 C.2     1  UNL1        0.3911
     10 O          -0.9650   -5.3580   -3.3030 O.co2   1  UNL1       -0.2404
@<TRIPOS>BOND
     1     1     3    1
     2     2     4   ar
     3     3     5    1
     4     4     6   ar
     5     5     4    1
     6     7     9   ar
     7     8     1    2
     8     9     8    1
     9     9    10   ar
@<TRIPOS>MOLECULE
*****
 11 10 0 0 0
SMALL
GASTEIGER

@<TRIPOS>ATOM
      1 C          -1.9430   -5.7160   -4.4310 C.3     1  UNL1        0.1476
      2 C          -0.5780   -3.8810   -4.6350 C.3     1  UNL1        0.3289
      3 C          -2.8170   -6.3860   -3.4200 C.3     1  UNL1        0.0642
      4 O          -6.9520   -4.3680   -2.4570 O.3     1  UNL1       -0.3484
      5 C          -6.7630   -4.8820   -1.2210 C.3     1  UNL1        0.1742
      6 C          -7.9440   -4.1120   -3.3320 C.3     1  UNL1        0.1742
      7 O          -4.7550   -5.1440   -2.4960 O.3     1  UNL1       -0.3510
      8 C          -5.4010   -5.2800   -1.2090 C.3     1  UNL1        0.1741
      9 O          -1.6150   -4.5220   -3.8780 O.3     1  UNL1       -0.3246
     10 C          -3.8050   -6.0150   -2.9110 C.3     1  UNL1        0.1449
     11 O          -0.9700   -2.7560   -5.3330 O.3     1  UNL1       -0.1841
@<TRIPOS>BOND
     1     1     9    1
     2     1     3    1
     3     2     9    1
     4     3    10    1
     5     4     5    1
     6     5     8    1
     7     6     4    1
     8     7     8    1
     9    10     7    1
    10    11     2    1
@<TRIPOS>MOLECULE
*****
 16 15 0 0 0
SMALL
GASTEIGER

@<TRIPOS>ATOM
      1 C          -6.0870   -5.6390    0.0440 C.3     1  UNL1        0.1451
      2 C          -6.0130   -5.2770    2.2440 C.3     1  UNL1        0.2422
      3 O          -5.8150   -4.6140    1.0200 O.3     1  UNL1       -0.3461
      4 O          -0.4360   -3.3300   -3.3310 O.3     1  UNL1       -0.1145
      5 O          -7.3310   -3.1600    2.9980 O.2     1  UNL1       -0.2641
      6 O          -1.6160   -3.6530   -5.3780 O.2     1  UNL1       -0.2224
      7 O          -6.4880   -4.9440    4.5220 O.2     1  UNL1       -0.2641
      8 O          -1.0220   -5.8500   -4.0450 O.3     1  UNL1       -0.2675
      9 C          -4.7460   -5.9440   -1.9400 C.3     1  UNL1        0.1449
     10 C          -3.4500   -6.2210   -3.8990 C.3     1  UNL1        0.1747
     11 C          -5.8670   -5.0920   -1.3600 C.3     1  UNL1        0.0641
     12 O          -4.3570   -5.4100   -3.1380 O.3     1  UNL1       -0.3510
     13 C          -2.1150   -6.0770   -3.2570 C.3     1  UNL1        0.1857
     14 C          -6.9760   -4.5360    3.2050 C.3     1  UNL1        0.4549
     15 P          -0.6560   -4.3480   -4.5250 P.3     1  UNL1        0.5327
     16 O           0.8540   -4.6590   -5.3420 O.3     1  UNL1       -0.1145
@<TRIPOS>BOND
     1     1     3    1
     2     2    14    1
     3     3     2    1
     4     5    14    1
     5     6    15    2
     6     8    13    1
     7     9    11    1
     8    10    13    1
     9    10    12    1
    10    11     1    1
    11    12     9    1
    12    14     7    1
    13    15     8    1
    14    15     4    1
    15    16    15    1
@<TRIPOS>MOLECULE
*****
 13 12 0 0 0
SMALL
GASTEIGER

@<TRIPOS>ATOM
      1 O          -4.2530   -1.1240    4.0560 O.3     1  UNL1       -0.1145
      2 C          -5.3760   -5.5090   -1.2700 C.2     1  UNL1        0.0408
      3 C          -4.5260   -5.7470   -2.3590 C.1     1  UNL1       -0.1052
      4 C          -3.3180   -6.0650   -3.2160 C.2     1  UNL1        0.0152
      5 C          -2.1320   -5.5270   -3.2720 C.3     1  UNL1        0.0344
      6 O          -4.2700   -2.0650    1.7080 O.3     1  UNL1       -0.2654
      7 C          -5.1420   -4.5680   -0.1540 C.2     1  UNL1        0.0061
      8 C          -5.4540   -2.8940    1.7130 C.3     1  UNL1        0.1800
      9 C          -6.0660   -3.8390    0.6550 C.2     1  UNL1        0.0069
     10 C          -0.6440   -4.8560   -3.4880 C.3     1  UNL1        0.0057
     11 P          -3.8130   -1.1490    2.6830 P.3     1  UNL1        0.5329
     12 O          -3.8030    0.2840    2.2390 O.2     1  UNL1       -0.2224
     13 O          -2.4160   -1.7530    2.7570 O.3     1  UNL1       -0.1145
@<TRIPOS>BOND
     1     2     7    1
     2     3     2    2
     3     4     3    2
     4     5     4    1
     5     6     8    1
     6     6    11    1
     7     7     9    2
     8     9     8    1
     9    10     5    1
    10    11    13    1
    11    11     1    1
    12    12    11    2
@<TRIPOS>MOLECULE
*****
 9 9 0 0 0
SMALL
GASTEIGER

@<TRIPOS>ATOM
      1 C          -5.7890   -4.3060    0.7310 C.3     1  UNL1        0.2090
      2 C          -8.1440   -3.4880    0.9070 C.3     1  UNL1        0.1449
      3 O          -5.3780   -5.2730    1.3370 O.3     1  UNL1       -0.2178
      4 O          -7.3060   -2.4340    0.9570 O.3     1  UNL1       -0.3535
      5 C          -6.6800   -4.6290   -0.4130 C.3     1  UNL1        0.1871
      6 O          -6.4150   -5.2220   -1.6430 O.3     1  UNL1       -0.2202
      7 C          -6.3550   -3.0060    1.7660 C.3     1  UNL1        0.1481
      8 C          -5.6310   -2.0960    1.9410 C.3     1  UNL1        0.0349
      9 C          -8.1140   -4.3410   -0.1850 C.3     1  UNL1        0.0677
@<TRIPOS>BOND
     1     1     3    1
     2     1     7    1
     3     2     4    1
     4     4     7    1
     5     5     6    1
     6     5     9    1
     7     5     1    1
     8     7     8    1
     9     9     2    1
@<TRIPOS>MOLECULE
*****
 10 10 0 0 0
SMALL
GASTEIGER

@<TRIPOS>ATOM
      1 C          -4.2820   -6.0660   -4.6330 C.3     1  UNL1        0.1173
      2 N          -5.4210   -5.6840   -3.8880 N.am    1  UNL1       -0.2500
      3 C          -6.5900   -5.8690   -0.3600 C.2     1  UNL1        0.4005
      4 O          -4.1900   -6.7450   -2.2220 O.2     1  UNL1       -0.2716
      5 C          -5.4290   -6.0090   -2.5380 C.2     1  UNL1        0.2661
      6 O          -5.6450   -6.4800    0.0570 O.co2   1  UNL1       -0.2424
      7 C          -6.2080   -4.4790   -3.8360 C.3     1  UNL1        0.2434
      8 O          -7.7300   -5.5610    0.2930 O.co2   1  UNL1       -0.2424
      9 C          -6.7210   -5.4870   -1.8980 C.3     1  UNL1        0.2963
     10 O          -6.7550   -4.2400   -2.4840 O.3     1  UNL1       -0.3173
@<TRIPOS>BOND
     1     1     2    1
     2     2     7    1
     3     2     5   am
     4     3     6   ar
     5     3     8   ar
     6     5     4    2
     7     5     9    1
     8     7    10    1
     9     9     3    1
    10    10     9    1
@<TRIPOS>MOLECULE
*****
 13 12 0 0 0
SMALL
GASTEIGER

@<TRIPOS>ATOM
      1 O          -5.0190   -6.8010   -3.3340 O.3     1  UNL1       -0.1847
      2 C          -6.9230   -5.4240    0.1130 C.3     1  UNL1        0.2405
      3 C          -5.2730   -5.3780   -1.5860 C.2     1  UNL1        0.0371
      4 C          -9.2190   -5.3100   -0.7660 C.3     1  UNL1        0.2154
      5 O          -9.0940   -4.9910    0.3540 O.3     1  UNL1       -0.2176
      6 C          -5.6740   -6.5230   -2.1330 C.3     1  UNL1        0.2925
      7 C          -5.0750   -5.2490   -0.7000 C.2     1  UNL1        0.0003
      8 C          -5.6740   -3.5160    1.1390 C.2     1  UNL1        0.3176
      9 C          -5.6570   -2.0630    1.4190 C.3     1  UNL1        0.1212
     10 O          -7.1020   -6.3590   -2.2930 O.3     1  UNL1       -0.3211
     11 C          -7.7790   -6.2050   -0.9330 C.3     1  UNL1        0.1945
     12 O          -5.0020   -4.2930    1.9280 O.2     1  UNL1       -0.2501
     13 O          -6.4160   -4.2040    0.2450 O.3     1  UNL1       -0.4457
@<TRIPOS>BOND
     1     2    13    1
     2     3     7    2
     3     4     5    1
     4     6     1    1
     5     6     3    1
     6     8     9    1
     7     8    12    2
     8    10     6    1
     9    10    11    1
    10    11     4    1
    11    11     2    1
    12    13     8    1
@<TRIPOS>MOLECULE
*****
 12 12 0 0 0
SMALL
GASTEIGER

@<TRIPOS>ATOM
      1 N          -4.9960   -6.1940    0.2060 N.3     1  UNL1       -0.0978
      2 C          -5.7610   -5.2020   -2.4960 C.3     1  UNL1        0.1809
      3 O          -8.2050   -5.2380   -2.8310 O.2     1  UNL1       -0.2928
      4 C          -4.7400   -6.3070   -2.4220 C.2     1  UNL1        0.3724
      5 O          -5.0640   -7.4540   -1.8370 O.co2   1  UNL1       -0.2452
      6 O          -7.5410   -3.4320   -0.3180 O.3     1  UNL1       -0.2139
      7 C          -7.0090   -6.0350   -0.3660 C.3     1  UNL1        0.0933
      8 C          -7.4430   -4.8200   -2.1040 C.2     1  UNL1        0.1932
      9 O          -3.7390   -5.8430   -3.0880 O.co2   1  UNL1       -0.2452
     10 C          -7.2360   -4.5730   -0.9090 C.3     1  UNL1        0.2222
     11 O          -6.4660   -4.7000    1.1040 O.3     1  UNL1       -0.2032
     12 C          -5.9990   -5.1220    0.0450 C.3     1  UNL1        0.2360
@<TRIPOS>BOND
     1     2     4    1
     2     2     8    1
     3     3     8    2
     4     4     5   ar
     5     7    12    1
     6     8    10    1
     7     9     4   ar
     8    10     7    1
     9    10     6    1
    10    10    12    1
    11    12     1    1
    12    12    11    1
@<TRIPOS>MOLECULE
*****
 13 13 0 0 0
SMALL
GASTEIGER

@<TRIPOS>ATOM
      1 O          -3.7820   -7.6120   -3.0190 O.3     1  UNL1       -0.2130
      2 C          -6.0730   -4.1450    1.0610 C.2     1  UNL1        0.4070
      3 C          -5.8260   -5.0340   -0.0880 C.3     1  UNL1        0.3224
      4 C          -5.3900   -6.1620   -1.8980 C.2     1  UNL1        0.2549
      5 N          -5.2530   -6.1990    0.3020 N.3     1  UNL1        0.0094
      6 O          -5.6410   -4.7090    2.1970 O.co2   1  UNL1       -0.2417
      7 C          -4.6980   -6.6050   -3.0870 C.3     1  UNL1        0.2316
      8 O          -5.2330   -6.9720   -0.7390 O.2     1  UNL1       -0.3649
      9 N          -5.9320   -4.9920   -1.5480 N.2     1  UNL1       -0.2070
     10 O          -2.6330   -5.1410   -3.5430 O.3     1  UNL1       -0.2203
     11 C          -4.4770   -5.7300   -4.2310 C.3     1  UNL1        0.0781
     12 O          -6.4260   -2.9460    0.9870 O.co2   1  UNL1       -0.2417
     13 C          -2.9750   -5.7670   -4.5070 C.3     1  UNL1        0.1853
@<TRIPOS>BOND
     1     2     6   ar
     2     3     5    1
     3     3     2    1
     4     4     9    2
     5     4     8    1
     6     7     1    1
     7     7     4    1
     8     8     5    1
     9     9     3    1
    10    11     7    1
    11    12     2   ar
    12    13    11    1
    13    13    10    1
@<TRIPOS>MOLECULE
*****
 11 11 0 0 0
SMALL
GASTEIGER

@<TRIPOS>ATOM
      1 O          -5.3460   -4.6500    2.1330 O.3     1  UNL1       -0.3442
      2 O          -5.4060   -1.0570    1.7370 O.2     1  UNL1       -0.5374
      3 O          -4.3920   -7.0850    0.9500 O.3     1  UNL1       -0.3212
      4 C          -5.4320   -6.3430    0.4260 C.3     1  UNL1        0.2062
      5 N          -4.0070   -2.3470    3.0140 N.am    1  UNL1       -0.2004
      6 C          -5.2590   -2.1030    2.2520 C.2     1  UNL1        0.1171
      7 O          -3.1100   -1.2300    2.8590 O.3     1  UNL1       -0.4026
      8 C          -5.9000   -5.6000    1.2740 C.3     1  UNL1        0.1775
      9 C          -5.9660   -3.3820    1.8300 C.3     1  UNL1        0.1929
     10 C          -4.8610   -7.4110   -0.1860 C.3     1  UNL1        0.2991
     11 O          -4.1680   -7.1390   -1.6540 O.3     1  UNL1       -0.1871
@<TRIPOS>BOND
     1     2     6    2
     2     4     3    1
     3     4     8    1
     4     6     5   am
     5     7     5    1
     6     8     1    1
     7     9     1    1
     8     9     6    1
     9    10    11    1
    10    10     4    1
    11    10     3    1
@<TRIPOS>MOLECULE
*****
 10 10 0 0 0
SMALL
GASTEIGER

@<TRIPOS>ATOM
      1 O          -1.5380   -1.8310   -1.2790 O.3     1  UNL1       -0.2176
      2 C          -1.5970   -5.2070   -2.2360 C.3     1  UNL1        0.2663
      3 C           0.0760   -3.6720   -1.9350 C.3     1  UNL1        0.1476
      4 C           0.2140   -2.0440   -0.1530 C.3     1  UNL1        0.1873
      5 C           0.8750   -2.6960   -1.1410 C.3     1  UNL1        0.0678
      6 O           0.2090   -0.4510   -0.8580 O.3     1  UNL1       -0.2202
      7 O          -1.0490   -4.1700   -1.5700 O.3     1  UNL1       -0.3286
      8 C          -0.9020   -1.9400   -0.6650 C.3     1  UNL1        0.2148
      9 O          -2.7950   -5.7540   -1.7590 O.3     1  UNL1       -0.3232
     10 C          -1.7100   -6.5680   -1.5350 C.3     1  UNL1        0.2059
@<TRIPOS>BOND
     1     1     8    1
     2     2     9    1
     3     2     7    1
     4     2    10    1
     5     3     7    1
     6     3     5    1
     7     4     6    1
     8     5     4    1
     9     8     4    1
    10     9    10    1
@<TRIPOS>MOLECULE
*****
 9 9 0 0 0
SMALL
GASTEIGER

@<TRIPOS>ATOM
      1 C           0.7590    0.1780   -0.9850 C.3     1  UNL1        0.1448
      2 O           1.0580   -0.5160   -1.9990 O.3     1  UNL1       -0.3511
      3 C           0.2400   -0.6120    1.6030 C.3     1  UNL1        0.0027
      4 O          -3.4650   -2.9770    3.8140 O.3     1  UNL1       -0.2204
      5 C          -2.9540   -1.6530    3.7170 C.3     1  UNL1        0.1821
      6 C           1.4100    0.6680   -2.1900 C.3     1  UNL1        0.1715
      7 C          -1.3980   -1.6940    3.3300 C.3     1  UNL1        0.0355
      8 C           0.4150   -0.3750    0.2150 C.3     1  UNL1        0.0322
      9 C          -1.1700   -0.6710    2.1990 C.3     1  UNL1        0.0028
@<TRIPOS>BOND
     1     1     8    1
     2     2     1    1
     3     3     9    1
     4     5     4    1
     5     6     2    1
     6     6     1    1
     7     7     5    1
     8     8     3    1
     9     9     7    1
@<TRIPOS>MOLECULE
*****
 10 11 0 0 0
SMALL
GASTEIGER

@<TRIPOS>ATOM
      1 C          -4.5840   -4.0270   -0.9030 C.3     1  UNL1        0.0992
      2 N          -3.1780   -0.9450    0.9740 N.3     1  UNL1       -0.1320
      3 C          -4.2030   -2.0170    0.7480 C.3     1  UNL1        0.1037
      4 C          -5.0900   -3.7610    0.4610 C.3     1  UNL1        0.0942
      5 C          -5.3150   -5.3640   -0.1680 C.3     1  UNL1        0.3519
      6 O          -6.8470   -5.4360   -0.6090 O.2     1  UNL1       -0.2755
      7 C          -4.4830   -2.2300    1.8650 C.3     1  UNL1        0.0772
      8 O          -4.7340   -6.3190    0.1270 O.2     1  UNL1       -0.2755
      9 S          -5.6880   -1.7010    2.8330 S.3     1  UNL1       -0.0815
     10 C          -4.2640   -3.1500    1.0930 C.3     1  UNL1        0.0383
@<TRIPOS>BOND
     1     1     5    1
     2     3     2    1
     3     3    10    1
     4     3     7    1
     5     4     1    1
     6     5     8    1
     7     5     4    1
     8     6     5    1
     9     7     9    1
    10    10     4    1
    11    10     7    1
@<TRIPOS>MOLECULE
*****
 11 10 0 0 0
SMALL
GASTEIGER

@<TRIPOS>ATOM
      1 C          -2.9980   -6.4570   -3.6690 C.3     1  UNL1        0.1265
      2 C          -0.2690   -3.1730   -4.4800 C.2     1  UNL1        0.3449
      3 C          -1.7900   -5.8760   -4.5170 C.3     1  UNL1        0.0451
      4 O           1.0830   -2.8120   -2.5100 O.co2   1  UNL1       -0.2354
      5 O          -0.4690   -3.1540   -5.8610 O.2     1  UNL1       -0.2611
      6 N          -3.8530   -5.4870   -2.9690 N.3     1  UNL1       -0.0477
      7 C           0.7730   -2.4600   -3.7900 C.2     1  UNL1        0.4419
      8 N          -1.0180   -3.9190   -3.5700 N.am    1  UNL1       -0.1960
      9 O          -4.4800   -4.8960   -4.0030 O.3     1  UNL1       -0.1001
     10 O           1.1160   -1.4730   -4.6680 O.co2   1  UNL1       -0.2354
     11 C          -0.7240   -5.3670   -3.5640 C.3     1  UNL1        0.1173
@<TRIPOS>BOND
     1     1     6    1
     2     2     7    1
     3     2     8   am
     4     3     1    1
     5     3    11    1
     6     5     2    2
     7     7     4   ar
     8     8    11    1
     9     9     6    1
    10    10     7   ar
@<TRIPOS>MOLECULE
*****
 8 7 0 0 0
SMALL
GASTEIGER

@<TRIPOS>ATOM
      1 C           0.3570   -0.2520    2.8570 C.3     1  UNL1        0.3102
      2 C           1.4390    0.6270    2.9300 C.2     1  UNL1        0.1924
      3 O          -0.6660    2.0330    2.5400 O.co2   1  UNL1       -0.2423
      4 O           2.3330    1.1290    2.2400 O.2     1  UNL1       -0.2928
      5 C          -0.5830    0.7480    2.4240 C.2     1  UNL1        0.4019
      6 O           0.5970   -1.0910    1.7960 O.3     1  UNL1       -0.2027
      7 O          -1.8050    0.2420    1.8790 O.co2   1  UNL1       -0.2423
      8 C           1.8560    0.5420    4.2650 C.3     1  UNL1        0.0757
@<TRIPOS>BOND
     1     1     6    1
     2     1     2    1
     3     2     8    1
     4     4     2    2
     5     5     3   ar
     6     5     1    1
     7     7     5   ar
@<TRIPOS>MOLECULE
*****
 10 9 0 0 0
SMALL
GASTEIGER

@<TRIPOS>ATOM
      1 O          -7.9700   -2.2450    2.4620 O.3     1  UNL1       -0.1841
      2 C          -5.2460   -5.9180   -0.9840 C.2     1  UNL1       -0.0261
      3 C          -5.8100   -4.6640    1.1690 C.3     1  UNL1        0.0370
      4 C          -5.0720   -6.1180   -2.2950 C.2     1  UNL1       -0.0049
      5 C          -5.6950   -3.1580    1.1320 C.3     1  UNL1        0.1512
      6 C          -5.2950   -2.3350    2.4490 C.3     1  UNL1        0.2115
      7 O          -4.0010   -1.8260    2.4190 O.3     1  UNL1       -0.2177
      8 C          -7.7690   -2.9850    1.9160 C.3     1  UNL1        0.3289
      9 C          -6.3730   -5.0310   -0.4340 C.3     1  UNL1        0.0286
     10 O          -7.2260   -2.4300    0.8010 O.3     1  UNL1       -0.3245
@<TRIPOS>BOND
     1     2     9    1
     2     4     2    2
     3     5     3    1
     4     5     6    1
     5     7     6    1
     6     8     1    1
     7     9     3    1
     8    10     5    1
     9    10     8    1
@<TRIPOS>MOLECULE
*****
 18 19 0 0 0
SMALL
GASTEIGER

@<TRIPOS>ATOM
      1 CL         -0.8190    3.0360    1.1140 Cl      1  UNL1       -0.1150
      2 C           0.0330    1.4520   -0.6230 C.3     1  UNL1        0.0163
      3 C          -5.0140   -7.9660    0.2670 C.3     1  UNL1        0.1848
      4 C          -2.5890   -0.3550    1.6580 C.3     1  UNL1        0.0215
      5 C          -4.1300   -2.3460    1.7110 C.3     1  UNL1        0.1061
      6 O          -6.0960   -4.9930   -0.8570 O.3     1  UNL1       -0.2215
      7 C          -1.2500   -1.1080    0.0370 C.3     1  UNL1        0.0740
      8 C          -1.8680    0.2010    0.5430 C.3     1  UNL1        0.0325
      9 C          -0.1310   -1.1650   -0.8740 C.3     1  UNL1        0.0175
     10 C           0.4810    0.2450   -1.1730 C.3     1  UNL1        0.0027
     11 O          -4.0330   -8.0120    1.5580 O.3     1  UNL1       -0.2203
     12 N          -2.0030   -2.2520    0.5400 N.3     1  UNL1       -0.2194
     13 N          -4.9010   -3.2910    0.8810 N.3     1  UNL1       -0.2139
     14 C          -5.8030   -5.5190    0.6730 C.3     1  UNL1        0.1719
     15 C          -0.8070    1.3160    0.7940 C.3     1  UNL1        0.0813
     16 C          -5.8320   -4.2820    1.5100 C.3     1  UNL1        0.1216
     17 C          -4.8680   -6.6880    0.1090 C.3     1  UNL1        0.0699
     18 C          -3.2600   -1.4970    0.8260 C.3     1  UNL1        0.0902
@<TRIPOS>BOND
     1     2    15    1
     2     3    11    1
     3     7     9    1
     4     7    12    1
     5     7     8    1
     6     8    15    1
     7     8     4    1
     8    10     9    1
     9    10     2    1
    10    12    18    1
    11    13    16    1
    12    13     5    1
    13    14     6    1
    14    14    16    1
    15    15     1    1
    16    17     3    1
    17    17    14    1
    18    18     4    1
    19    18     5    1
@<TRIPOS>MOLECULE
*****
 12 13 0 0 0
SMALL
GASTEIGER

@<TRIPOS>ATOM
      1 C          -4.2140   -5.6850   -3.5160 C.3     1  UNL1        0.1093
      2 S          -0.2600   -0.4580   -2.6680 S.3     1  UNL1       -0.0122
      3 C          -5.2480   -6.2140   -4.2760 C.3     1  UNL1        0.1994
      4 C          -1.7610   -2.9270   -3.0650 C.3     1  UNL1        0.0913
      5 N          -3.5520   -4.4550   -2.9660 N.3     1  UNL1       -0.2571
      6 C          -2.6960   -2.3290   -2.0720 C.3     1  UNL1        0.0319
      7 C          -2.8710   -6.3780   -4.4630 C.3     1  UNL1        0.1088
      8 O          -5.9380   -6.9440   -4.6850 O.3     1  UNL1       -0.2189
      9 C          -2.3740   -4.1170   -3.7560 C.3     1  UNL1        0.1429
     10 N          -2.1100   -5.2260   -4.6570 N.3     1  UNL1       -0.2011
     11 S          -0.3730   -2.0440   -3.6290 S.3     1  UNL1       -0.0687
     12 C          -3.4820   -3.5500   -1.7400 C.3     1  UNL1        0.0744
@<TRIPOS>BOND
     1     1     3    1
     2     1     5    1
     3     4    11    1
     4     4     6    1
     5     5    12    1
     6     6    12    1
     7     7     1    1
     8     8     3    1
     9     9    10    1
    10     9     4    1
    11     9     5    1
    12    10     7    1
    13    11     2    1
@<TRIPOS>MOLECULE
*****
 21 22 0 0 0
SMALL
GASTEIGER

@<TRIPOS>ATOM
      1 C          -1.2150   -4.3700   -3.3780 C.ar    1  UNL1        0.0043
      2 C          -3.1350   -2.9780   -3.1990 C.ar    1  UNL1        0.0043
      3 C          -0.8010   -0.6870   -0.3450 C.2     1  UNL1        0.3464
      4 C          -2.2560   -2.1570    5.5550 C.ar    1  UNL1       -0.0219
      5 C          -2.8130   -2.8840    6.8250 C.3     1  UNL1        0.0310
      6 C          -3.2390   -5.4270   -3.6440 C.ar    1  UNL1       -0.0218
      7 C          -1.2400   -0.0680    2.0290 C.3     1  UNL1        0.1432
      8 C          -4.1750   -6.6650   -3.7750 C.3     1  UNL1        0.0310
      9 C          -1.8030   -3.1200   -3.0610 C.ar    1  UNL1        0.0555
     10 O           0.4490   -0.6250   -0.4210 O.2     1  UNL1       -0.2487
     11 C          -2.8460   -1.1940    3.4150 C.ar    1  UNL1       -0.0029
     12 C          -0.9180   -2.1450   -2.4560 C.2     1  UNL1        0.2726
     13 C          -3.9600   -4.1690   -3.4800 C.ar    1  UNL1       -0.0041
     14 O           0.2870   -2.1020   -2.6740 O.2     1  UNL1       -0.2679
     15 C          -0.5550   -1.2510    4.0390 C.ar    1  UNL1       -0.0029
     16 N          -1.4220   -1.3580   -1.4080 N.am    1  UNL1       -0.1224
     17 C          -0.8990   -1.9200    5.2890 C.ar    1  UNL1       -0.0045
     18 C          -1.5590   -0.8410    3.2060 C.ar    1  UNL1       -0.0005
     19 C          -3.1440   -1.8850    4.6020 C.ar    1  UNL1       -0.0045
     20 C          -1.9270   -5.5150   -3.6580 C.ar    1  UNL1       -0.0041
     21 N          -1.5030   -0.1790    0.7630 N.am    1  UNL1       -0.1820
@<TRIPOS>BOND
     1     1     9   ar
     2     2     9   ar
     3     3    21   am
     4     4     5    1
     5     6    13   ar
     6     7    18    1
     7     8     6    1
     8     9    12    1
     9    10     3    2
    10    11    19   ar
    11    12    16   am
    12    13     2   ar
    13    14    12    2
    14    15    17   ar
    15    16     3   am
    16    17     4   ar
    17    18    11   ar
    18    18    15   ar
    19    19     4   ar
    20    20     6   ar
    21    20     1   ar
    22    21     7    1
@<TRIPOS>MOLECULE
*****
 16 15 0 0 0
SMALL
GASTEIGER

@<TRIPOS>ATOM
      1 O          -6.5950   -4.0090    0.7450 O.3     1  UNL1       -0.3538
      2 C          -5.0580   -6.4340   -1.5430 C.3     1  UNL1        0.0026
      3 C          -6.6210   -3.2170    1.5850 C.3     1  UNL1        0.1422
      4 C          -0.1780   -4.3510   -4.9240 C.3     1  UNL1        0.0000
      5 C           1.2360   -2.7550   -3.5180 C.3     1  UNL1        0.0000
      6 C          -5.6870   -5.3280   -1.1080 C.3     1  UNL1        0.0321
      7 C          -5.2910   -2.5920    1.5910 C.3     1  UNL1        0.0336
      8 C          -3.6680   -0.7510    2.3300 C.3     1  UNL1        0.1094
      9 C           0.0260   -3.6960   -3.5700 C.3     1  UNL1        0.0000
     10 C          -2.0060   -5.3450   -3.5890 C.3     1  UNL1        0.0000
     11 C          -4.1980   -6.1180   -2.6990 C.3     1  UNL1        0.0001
     12 C          -1.4950   -5.2110   -5.0000 C.3     1  UNL1        0.0000
     13 C          -4.8480   -1.5560    1.7150 C.3     1  UNL1        0.0231
     14 C          -6.1240   -5.2890    0.3350 C.3     1  UNL1        0.1422
     15 N          -3.9880   -0.2950    3.9210 N.3     1  UNL1       -0.1314
     16 C          -3.0210   -6.4160   -3.5780 C.3     1  UNL1        0.0000
@<TRIPOS>BOND
     1     1     3    1
     2     2     6    1
     3     3     7    1
     4     4     9    1
     5     6    14    1
     6     7    13    1
     7     8    15    1
     8     9     5    1
     9    10    16    1
    10    11     2    1
    11    12     4    1
    12    12    10    1
    13    13     8    1
    14    14     1    1
    15    16    11    1
@<TRIPOS>MOLECULE
*****
 9 10 0 0 0
SMALL
GASTEIGER

@<TRIPOS>ATOM
      1 C          -5.6840   -5.3020   -3.2140 C.3     1  UNL1        0.0652
      2 C          -6.9760   -6.0390   -3.7250 C.3     1  UNL1        0.1448
      3 O          -7.3270   -7.0180   -2.8920 O.3     1  UNL1       -0.3535
      4 C          -6.7060   -6.6070   -1.5300 C.3     1  UNL1        0.1481
      5 C          -6.2530   -5.2680   -1.7770 C.3     1  UNL1        0.0374
      6 C          -4.6160   -6.2480   -2.7530 C.3     1  UNL1        0.1870
      7 O          -4.4710   -7.5880   -0.7220 O.3     1  UNL1       -0.2178
      8 C          -5.2320   -7.3360   -1.9010 C.3     1  UNL1        0.2090
      9 O          -3.2940   -5.9740   -2.9490 O.3     1  UNL1       -0.2202
@<TRIPOS>BOND
     1     1     2    1
     2     1     6    1
     3     1     5    1
     4     2     3    1
     5     3     4    1
     6     4     5    1
     7     6     9    1
     8     6     8    1
     9     8     4    1
    10     8     7    1
@<TRIPOS>MOLECULE
*****
 12 11 0 0 0
SMALL
GASTEIGER

@<TRIPOS>ATOM
      1 C          -1.9750   -0.9460    2.7880 C.3     1  UNL1        0.1058
      2 N           0.1240   -0.2540    1.9040 N.am    1  UNL1       -0.2072
      3 C          -3.7580   -3.5630    3.8690 C.3     1  UNL1        0.5064
      4 O          -5.0230   -4.0980    3.0070 O.2     1  UNL1       -0.2450
      5 C          -0.7030   -0.4260    3.0650 C.2     1  UNL1        0.2428
      6 O          -4.5110   -3.0860    4.5060 O.2     1  UNL1       -0.2450
      7 C           1.9390    1.3110    1.7310 C.3     1  UNL1        0.0234
      8 C          -2.6640   -1.4460    4.0220 C.3     1  UNL1        0.1060
      9 C           1.5870    0.0160    2.2340 C.3     1  UNL1        0.0954
     10 N          -2.6840   -2.6950    3.8520 N.3     1  UNL1       -0.1328
     11 O          -0.2830    0.0010    4.1550 O.2     1  UNL1       -0.2733
     12 C           2.1980   -1.1380    1.4610 C.3     1  UNL1        0.0234
@<TRIPOS>BOND
     1     1     5    1
     2     1     8    1
     3     2     9    1
     4     2     5   am
     5     3     6    1
     6     4     3    1
     7     5    11    2
     8     7     9    1
     9    10     3    1
    10    10     8    1
    11    12     9    1
@<TRIPOS>MOLECULE
*****
 11 10 0 0 0
SMALL
GASTEIGER

@<TRIPOS>ATOM
      1 C          -5.2760   -7.1810   -1.3120 C.3     1  UNL1        0.0053
      2 C          -3.7330   -1.2470    1.8680 C.2     1  UNL1        0.1730
      3 C          -5.5570   -2.9000    1.0030 C.2     1  UNL1        0.0443
      4 C          -5.5520   -4.9530   -0.6620 C.2     1  UNL1        0.0152
      5 C          -7.1010   -7.9070   -2.7900 C.3     1  UNL1        0.0000
      6 C          -5.5470   -4.1070    0.3230 C.1     1  UNL1       -0.1051
      7 C          -2.3900    0.7810    2.0770 C.3     1  UNL1        0.2526
      8 C          -5.5620   -7.9700   -2.7100 C.3     1  UNL1        0.0004
      9 C          -4.9860   -1.8260    1.4540 C.2     1  UNL1        0.0483
     10 O          -3.6400    0.1550    2.0570 O.2     1  UNL1       -0.4684
     11 C          -4.9510   -5.6650   -1.8550 C.3     1  UNL1        0.0344
@<TRIPOS>BOND
     1     2    10    1
     2     3     9    1
     3     4     6    2
     4     5     8    1
     5     6     3    2
     6     8     1    1
     7     9     2    2
     8    10     7    1
     9    11     1    1
    10    11     4    1
@<TRIPOS>MOLECULE
*****
 14 14 0 0 0
SMALL
GASTEIGER

@<TRIPOS>ATOM
      1 C          -1.4990   -2.2270   -2.2170 C.3     1  UNL1        0.1942
      2 C          -6.7190   -3.4460    0.3360 C.3     1  UNL1        0.0027
      3 S          -1.0230    0.5530   -0.6040 S.3     1  UNL1       -0.0329
      4 C          -2.6790   -3.6480   -1.8390 C.3     1  UNL1        0.1579
      5 C          -1.3880   -3.6540   -2.2410 C.3     1  UNL1        0.0785
      6 C          -5.7050   -4.2900    0.0550 C.3     1  UNL1        0.0321
      7 O          -4.0410   -4.2770   -1.6590 O.3     1  UNL1       -0.3525
      8 C          -0.3330    1.2020    0.7820 C.3     1  UNL1        0.0806
      9 C          -5.6340   -4.3580   -1.5360 C.3     1  UNL1        0.1422
     10 O          -0.0100   -1.4180   -2.1120 O.3     1  UNL1       -0.4431
     11 O           0.8170   -1.3550   -0.2810 O.2     1  UNL1       -0.2373
     12 C          -2.4410   -1.6670   -1.4680 C.3     1  UNL1        0.2243
     13 C           0.1710   -0.8330   -1.0360 C.2     1  UNL1        0.3698
     14 O          -2.5420   -2.2890   -0.1890 O.3     1  UNL1       -0.2164
@<TRIPOS>BOND
     1     1    10    1
     2     1     4    1
     3     1    12    1
     4     3     8    1
     5     4     7    1
     6     5     1    1
     7     5     4    1
     8     6     2    1
     9     7     9    1
    10     9     6    1
    11    10    13    1
    12    12    14    1
    13    13     3    1
    14    13    11    2
@<TRIPOS>MOLECULE
*****
 9 9 0 0 0
SMALL
GASTEIGER

@<TRIPOS>ATOM
      1 C          -6.0820   -5.3710    0.8100 C.3     1  UNL1        0.1802
      2 O          -4.9800   -5.9750    0.2730 O.3     1  UNL1       -0.3257
      3 C          -4.9530   -6.0060   -0.9560 C.3     1  UNL1        0.2696
      4 C          -5.8550   -3.7090    0.3230 C.3     1  UNL1        0.2109
      5 C          -3.6000   -6.3080   -1.3540 C.3     1  UNL1        0.2430
      6 C          -4.6110   -4.3810   -0.2660 C.3     1  UNL1        0.1802
      7 O          -6.7790   -3.4470   -0.7980 O.3     1  UNL1       -0.2177
      8 O          -3.2850   -5.5040   -2.6300 O.3     1  UNL1       -0.2148
      9 O          -4.9170   -4.6870   -1.0820 O.3     1  UNL1       -0.3257
@<TRIPOS>BOND
     1     2     1    1
     2     3     5    1
     3     3     2    1
     4     4     7    1
     5     4     1    1
     6     6     4    1
     7     8     5    1
     8     9     3    1
     9     9     6    1
@<TRIPOS>MOLECULE
*****
 7 9 0 0 0
SMALL
GASTEIGER

@<TRIPOS>ATOM
      1 C          -2.9720    0.2640    1.2590 C.3     1  UNL1        0.1993
      2 C          -4.2480   -1.9750    1.6400 C.3     1  UNL1        0.0761
      3 C          -4.0710   -0.4350    1.3010 C.3     1  UNL1        0.1055
      4 C          -5.7840   -1.9170    1.9460 C.3     1  UNL1        0.0737
      5 O          -3.4350    1.5120    0.5260 O.3     1  UNL1       -0.2189
      6 N          -5.4700   -0.5870    1.1560 N.3     1  UNL1       -0.2704
      7 C          -5.7110   -3.0930    1.2780 C.3     1  UNL1        0.0347
@<TRIPOS>BOND
     1     2     7    1
     2     2     4    1
     3     3     1    1
     4     3     2    1
     5     4     7    1
     6     5     1    1
     7     6     3    1
     8     6     2    1
     9     6     4    1
@<TRIPOS>MOLECULE
*****
 13 12 0 0 0
SMALL
GASTEIGER

@<TRIPOS>ATOM
      1 C          -5.9910   -6.3990   -1.2100 C.3     1  UNL1        0.1144
      2 O          -3.0440   -1.3890    2.4350 O.3     1  UNL1       -0.2659
      3 C          -4.7110   -6.4540   -1.9370 C.2     1  UNL1        0.3649
      4 C          -5.7760   -3.6620    0.6280 C.2     1  UNL1       -0.0292
      5 C          -5.8080   -3.0370    1.9270 C.2     1  UNL1       -0.0093
      6 C          -6.5050   -5.0170   -1.2400 C.3     1  UNL1        0.0165
      7 O          -4.2290   -5.4740   -2.5260 O.co2   1  UNL1       -0.2457
      8 C          -2.0160   -0.9270    2.1700 C.3     1  UNL1        0.1684
      9 N          -4.3020   -1.0960    2.1210 N.3     1  UNL1       -0.0788
     10 C          -5.0270   -2.0600    2.1600 C.3     1  UNL1        0.1471
     11 C          -6.3830   -4.6480    0.0530 C.3     1  UNL1        0.0263
     12 C          -0.8170   -0.4840    1.7510 C.3     1  UNL1        0.0370
     13 O          -4.1400   -7.5290   -1.8680 O.co2   1  UNL1       -0.2457
@<TRIPOS>BOND
     1     3    13   ar
     2     3     1    1
     3     4     5    2
     4     5    10    1
     5     6     1    1
     6     6    11    1
     7     7     3   ar
     8     8     2    1
     9     9    10    1
    10     9     2    1
    11    11     4    1
    12    12     8    1
@<TRIPOS>MOLECULE
*****
 9 8 0 0 0
SMALL
GASTEIGER

@<TRIPOS>ATOM
      1 C          -5.5180   -6.1650    0.7220 C.2     1  UNL1       -0.0374
      2 C          -5.9170   -3.6790    0.6770 C.3     1  UNL1        0.0121
      3 P          -5.6040   -5.4380   -1.6290 P.3     1  UNL1        0.1205
      4 C          -5.9730   -5.0200   -0.0700 C.3     1  UNL1        0.0704
      5 O          -5.9130   -6.9120   -1.7060 O.3     1  UNL1       -0.3569
      6 C          -4.8290   -6.4300    1.9190 C.3     1  UNL1        0.0268
      7 O          -4.1480   -5.1420   -2.0620 O.3     1  UNL1       -0.3569
      8 O          -6.5650   -4.7540   -2.5550 O.2     1  UNL1       -0.4598
      9 C          -6.3480   -7.1080    0.2040 C.2     1  UNL1       -0.0087
@<TRIPOS>BOND
     1     1     6    1
     2     3     4    1
     3     4     2    1
     4     4     1    1
     5     5     3    1
     6     7     3    1
     7     8     3    2
     8     9     1    2
@<TRIPOS>MOLECULE
*****
 7 6 0 0 0
SMALL
GASTEIGER

@<TRIPOS>ATOM
      1 O          -2.0390   -4.8090   -3.3060 O.3     1  UNL1       -0.2119
      2 O           0.7890   -2.0590   -6.2490 O.3     1  UNL1       -0.2199
      3 C          -0.6960   -4.9430   -3.8600 C.3     1  UNL1        0.2459
      4 C           0.1270   -3.8100   -4.1600 C.2     1  UNL1        0.1864
      5 O           1.2460   -4.0400   -4.7040 O.2     1  UNL1       -0.2932
      6 C          -0.3140   -2.3860   -4.0320 C.3     1  UNL1        0.1028
      7 C          -0.3150   -1.6620   -5.4200 C.3     1  UNL1        0.1899
@<TRIPOS>BOND
     1     2     7    1
     2     3     1    1
     3     4     6    1
     4     4     3    1
     5     5     4    2
     6     7     6    1
@<TRIPOS>MOLECULE
*****
 5 4 0 0 0
SMALL
GASTEIGER

@<TRIPOS>ATOM
      1 C          -5.8500   -4.3830   -4.7910 C.3     1  UNL1        0.1381
      2 N          -5.0030   -4.4600   -5.5700 N.am    1  UNL1       -0.1808
      3 O          -4.0560   -5.0620   -4.8240 O.2     1  UNL1       -0.2635
      4 N          -5.3600   -4.4810   -6.0810 N.3     1  UNL1       -0.0134
      5 C          -4.5250   -5.0330   -5.2680 C.2     1  UNL1        0.3196
@<TRIPOS>BOND
     1     2     5   am
     2     2     1    1
     3     4     2    1
     4     5     3    2
@<TRIPOS>MOLECULE
*****
 12 12 0 0 0
SMALL
GASTEIGER

@<TRIPOS>ATOM
      1 O          -0.3570   -5.1080   -3.5020 O.2     1  UNL1       -0.2709
      2 C           2.0030   -2.0520   -1.9150 C.3     1  UNL1        0.1720
      3 C          -0.7620   -4.0570   -3.9750 C.2     1  UNL1        0.2703
      4 O          -2.6890   -4.9130   -5.2450 O.3     1  UNL1       -0.1850
      5 C           0.0240   -2.6850   -3.8650 C.3     1  UNL1        0.1212
      6 C           1.1150   -2.4880   -3.0650 C.3     1  UNL1        0.1540
      7 C          -4.4480   -6.6550   -2.4500 C.3     1  UNL1        0.1169
      8 N          -3.7280   -5.7060   -3.2340 N.3     1  UNL1       -0.1474
      9 N          -1.8930   -4.0290   -4.7450 N.am    1  UNL1       -0.0560
     10 O           1.7080   -1.0640   -3.0290 O.3     1  UNL1       -0.3506
     11 O          -3.6480   -6.9530   -5.4170 O.3     1  UNL1       -0.1557
     12 P          -3.9820   -5.5440   -4.9280 P.3     1  UNL1        0.3312
@<TRIPOS>BOND
     1     3     5    1
     2     3     1    2
     3     4    12    1
     4     4     9    1
     5     6     5    1
     6     6    10    1
     7     6     2    1
     8     8     7    1
     9     9     3   am
    10    10     2    1
    11    12    11    1
    12    12     8    1
@<TRIPOS>MOLECULE
*****
 11 11 0 0 0
SMALL
GASTEIGER

@<TRIPOS>ATOM
      1 C          -4.7160   -1.7740    2.5200 C.2     1  UNL1        0.4710
      2 C          -7.0410   -5.0710    0.3650 C.3     1  UNL1        0.0027
      3 C          -5.5720   -6.1000    2.2120 C.3     1  UNL1        0.2158
      4 O          -5.1930   -3.8740    2.6250 O.3     1  UNL1       -0.1680
      5 N          -3.5080   -1.7030    2.8540 N.am    1  UNL1       -0.0452
      6 O          -5.8340   -6.2740    3.6270 O.3     1  UNL1       -0.2175
      7 C          -6.1090   -4.7550   -0.6380 C.3     1  UNL1        0.0027
      8 O          -4.8580   -2.8240    1.8050 O.3     1  UNL1       -0.2730
      9 C          -6.1390   -4.0130    0.4670 C.3     1  UNL1        0.0342
     10 C          -5.9630   -4.6330    1.9860 C.3     1  UNL1        0.1972
     11 O          -5.6420   -1.2550    3.0860 O.2     1  UNL1       -0.2199
@<TRIPOS>BOND
     1     1     5   am
     2     1    11    2
     3     2     9    1
     4     3     6    1
     5     7     2    1
     6     7     9    1
     7     8     1    1
     8     8     4    1
     9     9    10    1
    10    10     3    1
    11    10     4    1
@<TRIPOS>MOLECULE
*****
 10 10 0 0 0
SMALL
GASTEIGER

@<TRIPOS>ATOM
      1 O          -6.3780   -7.4690    2.1170 O.3     1  UNL1       -0.2176
      2 C          -6.1860   -6.5160    1.6270 C.3     1  UNL1        0.2147
      3 O          -6.7870   -1.8860    1.9380 O.3     1  UNL1       -0.3538
      4 C          -5.7550   -5.5740    0.6260 C.3     1  UNL1        0.1849
      5 C          -7.5100   -3.8500    0.7090 C.3     1  UNL1        0.0348
      6 C          -5.2140   -3.6150    1.6910 C.3     1  UNL1        0.0348
      7 C          -5.3360   -2.1610    1.7190 C.3     1  UNL1        0.1422
      8 C          -7.4710   -2.3290    0.7940 C.3     1  UNL1        0.1422
      9 C          -5.9130   -4.1960    0.5760 C.3     1  UNL1        0.0381
     10 O          -6.1890   -6.3280   -0.6820 O.3     1  UNL1       -0.2203
@<TRIPOS>BOND
     1     2     1    1
     2     4    10    1
     3     4     2    1
     4     5     8    1
     5     6     7    1
     6     7     3    1
     7     8     3    1
     8     9     4    1
     9     9     5    1
    10     9     6    1
@<TRIPOS>MOLECULE
*****
 7 6 0 0 0
SMALL
GASTEIGER

@<TRIPOS>ATOM
      1 C          -4.5020   -6.4390   -4.3030 C.3     1  UNL1        0.1289
      2 N          -3.0230   -2.8660   -6.6450 N.2     1  UNL1        0.1923
      3 C          -4.9340   -3.2510   -7.1950 C.3     1  UNL1        0.1394
      4 C          -3.8700   -5.1630   -4.5940 C.2     1  UNL1        0.3528
      5 C          -3.7810   -3.5720   -6.1980 C.2     1  UNL1        0.3976
      6 O          -3.0550   -4.9790   -3.9220 O.2     1  UNL1       -0.2429
      7 N          -4.4040   -4.2770   -5.3640 N.am    1  UNL1        0.0319
@<TRIPOS>BOND
     1     2     5    2
     2     3     5    1
     3     4     1    1
     4     4     6    2
     5     5     7    1
     6     7     4   am
@<TRIPOS>MOLECULE
*****
 19 18 0 0 0
SMALL
GASTEIGER

@<TRIPOS>ATOM
      1 C          -5.4940   -5.3800   -1.7530 C.3     1  UNL1        0.2111
      2 O          -4.5540   -7.8670   -2.2440 O.2     1  UNL1       -0.2496
      3 C          -7.5660   -3.9620    2.1580 C.3     1  UNL1        0.1846
      4 O          -5.4510   -1.0000    1.2770 O.2     1  UNL1       -0.5172
      5 C          -2.6640   -7.2710   -3.4070 C.3     1  UNL1        0.1681
      6 O          -5.3720   -3.6180    0.5330 O.3     1  UNL1       -0.3140
      7 C          -6.9830   -5.0660    3.1220 C.3     1  UNL1        0.2145
      8 C          -5.7830   -6.0560   -0.3480 C.3     1  UNL1        0.0799
      9 O          -6.8400   -2.7450    2.4400 O.3     1  UNL1       -0.3112
     10 P          -2.0040   -5.8620   -4.2820 P.3     1  UNL1        0.1284
     11 O          -5.6430   -4.9430    3.3050 O.3     1  UNL1       -0.2176
     12 O          -1.0140   -4.9690   -3.4820 O.3     1  UNL1       -0.3567
     13 C          -5.8670   -4.9850    0.7630 C.3     1  UNL1        0.1530
     14 O          -4.3520   -2.4210    2.4510 O.3     1  UNL1       -0.4373
     15 O          -4.1700   -5.6690   -2.1930 O.3     1  UNL1       -0.4481
     16 O          -2.9450   -4.9560   -4.8280 O.3     1  UNL1       -0.3567
     17 P          -5.5550   -2.4360    1.5960 P.3     1  UNL1        0.2141
     18 O          -1.3770   -6.6410   -5.4700 O.2     1  UNL1       -0.4595
     19 C          -3.8720   -6.9350   -2.6130 C.2     1  UNL1        0.3245
@<TRIPOS>BOND
     1     1     8    1
     2     3     9    1
     3     3     7    1
     4     5    19    1
     5     6    13    1
     6     6    17    1
     7     7    11    1
     8     8    13    1
     9    10    12    1
    10    10     5    1
    11    15     1    1
    12    16    10    1
    13    17     4    2
    14    17     9    1
    15    17    14    1
    16    18    10    2
    17    19     2    2
    18    19    15    1
@<TRIPOS>MOLECULE
*****
 10 10 0 0 0
SMALL
GASTEIGER

@<TRIPOS>ATOM
      1 C          -3.4690   -4.7910   -3.5770 C.3     1  UNL1        0.1821
      2 O          -5.6090   -3.3400    0.2180 O.3     1  UNL1       -0.1826
      3 C          -6.1280   -4.1530    1.2790 C.3     1  UNL1        0.3071
      4 C          -5.9980   -5.0020   -0.7870 C.3     1  UNL1        0.0487
      5 O          -2.1950   -5.4880   -3.2520 O.3     1  UNL1       -0.2204
      6 C          -7.2270   -6.6350    1.8090 C.3     1  UNL1        0.0553
      7 O          -4.9220   -5.1400    1.9910 O.3     1  UNL1       -0.3135
      8 P          -5.7520   -5.6870    0.8850 P.3     1  UNL1        0.0780
      9 C          -4.7560   -5.7220   -2.8090 C.3     1  UNL1        0.0360
     10 C          -4.5680   -5.9840   -1.3980 C.3     1  UNL1        0.0095
@<TRIPOS>BOND
     1     1     5    1
     2     1     9    1
     3     3     2    1
     4     3     7    1
     5     4     8    1
     6     8     3    1
     7     8     6    1
     8     8     7    1
     9     9    10    1
    10    10     4    1
@<TRIPOS>MOLECULE
*****
 13 12 0 0 0
SMALL
GASTEIGER

@<TRIPOS>ATOM
      1 O          -7.3940   -6.8720   -1.7550 O.3     1  UNL1       -0.2890
      2 C          -4.6870   -5.1310   -5.3100 C.3     1  UNL1        0.2282
      3 N          -5.4570   -5.3960   -1.6670 N.am    1  UNL1       -0.0620
      4 O          -4.5470   -3.8500   -5.5870 O.3     1  UNL1       -0.2163
      5 O          -6.6400   -6.7410    0.0110 O.3     1  UNL1       -0.2890
      6 O          -5.1810   -7.0610   -2.5030 O.2     1  UNL1       -0.2229
      7 C          -1.9710   -5.8100   -4.6610 C.3     1  UNL1        0.2282
      8 C          -4.6380   -6.0310   -2.5500 C.2     1  UNL1        0.4396
      9 O          -3.6740   -5.4740   -3.0510 O.3     1  UNL1       -0.4308
     10 O          -1.5830   -4.5430   -3.6720 O.3     1  UNL1       -0.2163
     11 C          -3.5210   -5.6700   -4.4290 C.3     1  UNL1        0.2360
     12 S          -6.6260   -5.8430   -0.8370 S.3     1  UNL1       -0.1069
     13 O          -7.3720   -4.7640   -0.5000 O.3     1  UNL1       -0.2890
@<TRIPOS>BOND
     1     1    12    1
     2     2    11    1
     3     3    12    1
     4     4     2    1
     5     7    11    1
     6     7    10    1
     7     8     6    2
     8     8     3   am
     9     9     8    1
    10    11     9    1
    11    12    13    1
    12    12     5    1
@<TRIPOS>MOLECULE
*****
 1 0 0 0 0
SMALL
GASTEIGER

@<TRIPOS>ATOM
      1 CL         -5.1350   -1.4520    2.9400 Cl      1  UNL1        0.0000
@<TRIPOS>BOND
@<TRIPOS>MOLECULE
*****
 28 29 0 0 0
SMALL
GASTEIGER

@<TRIPOS>ATOM
      1 O          -0.3470   -2.0910   -5.5270 O.3     1  UNL1       -0.2067
      2 C           0.9770   -0.2610   -1.5730 C.3     1  UNL1        0.1510
      3 C          -5.5390   -6.8260   -3.2480 C.3     1  UNL1        0.0175
      4 O          -1.1540   -6.2330   -3.0740 O.2     1  UNL1       -0.2649
      5 C           0.4760   -2.5750   -4.4020 C.3     1  UNL1        0.2649
      6 C          -5.6410   -6.1130   -1.9390 C.3     1  UNL1        0.0809
      7 C          -7.8350   -4.0020    0.0810 C.2     1  UNL1        0.3842
      8 C          -4.0280   -6.5700   -3.9000 C.3     1  UNL1        0.0746
      9 N           1.7850    1.3110    1.1020 N.3     1  UNL1       -0.1313
     10 C          -6.7750   -7.1090   -1.3980 C.2     1  UNL1        0.2414
     11 N          -7.6320   -6.3040   -0.4950 N.am    1  UNL1       -0.1956
     12 N           1.0220   -1.6100   -2.0640 N.2     1  UNL1       -0.2373
     13 O           0.3070   -0.2570   -3.6640 O.2     1  UNL1       -0.4594
     14 C           1.9490   -0.1080    0.6750 C.3     1  UNL1        0.1113
     15 C           0.3350   -1.4900   -3.1880 C.2     1  UNL1        0.2330
     16 CA         -6.8460   -5.1480    0.1560 C.3     1  UNL1        0.1982
     17 O          -7.0670   -8.3040   -1.6790 O.2     1  UNL1       -0.2733
     18 C           1.7740   -0.5090   -0.7580 C.3     1  UNL1        0.0453
     19 C           3.2200   -0.9050   -0.9140 C.3     1  UNL1        0.0037
     20 C          -0.0410   -3.8980   -3.7460 C.2     1  UNL1        0.1047
     21 O          -9.1490   -4.6080    0.1880 O.co2   1  UNL1       -0.2437
     22 C          -3.2800   -5.5280   -3.2050 C.2     1  UNL1        0.2279
     23 N          -1.4050   -4.1530   -3.8290 N.am    1  UNL1       -0.1733
     24 OXT        -7.2540   -2.8330    0.6110 O.co2   1  UNL1       -0.2437
     25 C           1.2510    0.4230   -2.7650 C.3     1  UNL1        0.2310
     26 C          -1.8660   -5.3320   -3.3000 C.2     1  UNL1        0.3037
     27 O          -3.6420   -5.2190   -2.3110 O.2     1  UNL1       -0.2864
     28 C          -5.6620   -4.9680   -0.7410 C.3     1  UNL1        0.0424
@<TRIPOS>BOND
     1     2    18    1
     2     5     1    1
     3     5    20    1
     4     5    15    1
     5     6     3    1
     6     6    10    1
     7     6    28    1
     8     7    21   ar
     9     7    24   ar
    10     8     3    1
    11     8    22    1
    12    10    11   am
    13    11    16    1
    14    12     2    1
    15    13    15    1
    16    13    25    1
    17    14     9    1
    18    15    12    2
    19    16     7    1
    20    17    10    2
    21    18    19    1
    22    18    14    1
    23    22    27    2
    24    23    20    2
    25    23    26    1
    26    25     2    1
    27    26    22    1
    28    26     4    2
    29    28    16    1
@<TRIPOS>MOLECULE
*****
 12 12 0 0 0
SMALL
GASTEIGER

@<TRIPOS>ATOM
      1 N          -6.4400   -4.0430    0.5420 N.2     1  UNL1       -0.1510
      2 O          -2.7380   -4.4850   -5.4870 O.2     1  UNL1       -0.2650
      3 C          -4.1970   -5.9590   -4.3150 C.ar    1  UNL1        0.1374
      4 C          -6.4020   -4.7490   -1.7840 C.3     1  UNL1        0.0946
      5 C          -4.8720   -6.6580   -1.8420 C.ar    1  UNL1        0.0151
      6 C          -4.0810   -7.5060   -2.6030 C.ar    1  UNL1        0.0029
      7 N          -5.1530   -5.2100   -3.7490 N.ar    1  UNL1       -0.2446
      8 N          -3.6640   -6.0450   -6.7910 N.am    1  UNL1       -0.0824
      9 C          -6.1300   -4.5950   -0.4360 C.2     1  UNL1        0.1020
     10 C          -3.7760   -7.2450   -3.8820 C.ar    1  UNL1        0.0239
     11 C          -5.5310   -5.5730   -2.4790 C.ar    1  UNL1        0.0652
     12 C          -3.5550   -5.4470   -5.6790 C.2     1  UNL1        0.3019
@<TRIPOS>BOND
     1     3    10   ar
     2     3     7   ar
     3     4     9    1
     4     6     5   ar
     5     7    11   ar
     6     8    12   am
     7     9     1    2
     8    10     6   ar
     9    11     5   ar
    10    11     4    1
    11    12     2    2
    12    12     3    1
@<TRIPOS>MOLECULE
*****
 12 12 0 0 0
SMALL
GASTEIGER

@<TRIPOS>ATOM
      1 C          -3.7760   -7.1610   -2.9870 C.ar    1  UNL1        0.0115
      2 C          -4.3350   -6.7060   -4.2340 C.ar    1  UNL1        0.0577
      3 CL         -3.6100   -7.4100   -5.5360 Cl      1  UNL1       -0.0822
      4 C          -5.6890   -5.2220   -2.8410 C.ar    1  UNL1        0.0027
      5 C          -4.2920   -6.8140   -1.7930 C.ar    1  UNL1        0.0027
      6 C          -5.2990   -5.8390   -1.6950 C.ar    1  UNL1        0.0211
      7 C          -5.9000   -5.3160   -0.3930 C.2     1  UNL1        0.0913
      8 C          -7.9200   -3.9050   -0.3230 C.3     1  UNL1        0.1199
      9 C          -5.2430   -5.7150   -4.1040 C.ar    1  UNL1        0.0115
     10 O          -5.2420   -5.1550    0.6700 O.2     1  UNL1       -0.5373
     11 N          -7.1150   -5.1060   -0.1670 N.am    1  UNL1       -0.2793
     12 O          -8.0620   -6.3680   -0.2300 O.3     1  UNL1       -0.4195
@<TRIPOS>BOND
     1     1     5   ar
     2     2     9   ar
     3     2     1   ar
     4     3     2    1
     5     4     6   ar
     6     5     6   ar
     7     6     7    1
     8     7    11   am
     9     7    10    2
    10     8    11    1
    11     9     4   ar
    12    12    11    1
@<TRIPOS>MOLECULE
*****
 9 9 0 0 0
SMALL
GASTEIGER

@<TRIPOS>ATOM
      1 O          -4.3790   -5.1410   -4.0650 O.2     1  UNL1       -0.2496
      2 C          -5.6740   -6.1500   -0.3670 C.2     1  UNL1        0.2411
      3 C          -6.6060   -5.4860   -1.2920 C.3     1  UNL1        0.2273
      4 O          -7.8420   -5.3680   -0.7930 O.3     1  UNL1       -0.2140
      5 C          -4.8550   -5.4580   -3.0030 C.2     1  UNL1        0.3247
      6 O          -6.0350   -6.1830    0.9510 O.2     1  UNL1       -0.2853
      7 C          -6.1410   -5.0240   -2.4950 C.3     1  UNL1        0.1509
      8 C          -4.5450   -6.6880   -0.9350 C.2     1  UNL1        0.2226
      9 O          -4.1800   -6.3520   -2.1810 O.3     1  UNL1       -0.4177
@<TRIPOS>BOND
     1     1     5    2
     2     2     6    1
     3     3     4    1
     4     3     2    1
     5     5     7    1
     6     5     9    1
     7     7     3    1
     8     8     2    2
     9     9     8    1
@<TRIPOS>MOLECULE
*****
 12 13 0 0 0
SMALL
GASTEIGER

@<TRIPOS>ATOM
      1 C          -5.1450   -5.4320    1.7180 C.3     1  UNL1        0.0085
      2 C          -5.8160   -3.3060    1.4400 C.3     1  UNL1        0.0692
      3 C          -4.9680   -7.1050    0.0220 C.2     1  UNL1        0.1524
      4 O          -4.5320   -8.1350   -0.6300 O.2     1  UNL1       -0.4566
      5 C          -6.0270   -4.6090   -0.3730 C.3     1  UNL1        0.0085
      6 C          -5.6230   -4.8190    0.7780 C.3     1  UNL1        0.0086
      7 C          -5.1250   -6.5850   -1.1270 C.2     1  UNL1        0.1524
      8 O          -7.3690   -3.8520    2.9110 O.2     1  UNL1       -0.2913
      9 C          -5.4730   -2.1540    2.7750 C.2     1  UNL1        0.0404
     10 C          -5.0470   -6.7630    1.1820 C.3     1  UNL1        0.0674
     11 C          -6.0440   -3.1190    2.2520 C.2     1  UNL1        0.1732
     12 C          -5.5950   -5.3230   -1.3660 C.3     1  UNL1        0.0674
@<TRIPOS>BOND
     1     2    11    1
     2     3    10    1
     3     4     3    1
     4     5     6    1
     5     6     2    1
     6     6     1    1
     7     7     4    1
     8     7     3    2
     9    10     1    1
    10    11     9    2
    11    11     8    1
    12    12     7    1
    13    12     5    1
@<TRIPOS>MOLECULE
*****
 13 12 0 0 0
SMALL
GASTEIGER

@<TRIPOS>ATOM
      1 C          -5.3390   -5.0490   -1.8900 C.3     1  UNL1        0.0001
      2 C          -4.5240   -6.1460   -2.3360 C.3     1  UNL1        0.0003
      3 O          -1.2280   -4.1110   -3.3450 O.2     1  UNL1       -0.2671
      4 C          -3.5040   -5.6950   -3.0460 C.3     1  UNL1        0.0081
      5 O          -0.0890   -5.7180   -4.6910 O.2     1  UNL1       -0.2671
      6 C          -1.1950   -5.8910   -3.7010 C.3     1  UNL1        0.4259
      7 C          -6.5650   -5.0520   -0.0450 C.3     1  UNL1        0.0199
      8 C          -6.4510   -4.8900   -1.4000 C.3     1  UNL1        0.0015
      9 C          -6.0010   -3.9920    1.0070 C.3     1  UNL1        0.1041
     10 N          -5.7130   -2.8210    2.4790 N.3     1  UNL1       -0.1315
     11 O          -4.7070   -3.4150    3.2660 O.3     1  UNL1       -0.1179
     12 C          -6.8730   -2.9820    2.9190 C.3     1  UNL1        0.1239
     13 C          -2.4520   -6.4970   -3.7450 C.3     1  UNL1        0.0998
@<TRIPOS>BOND
     1     1     8    1
     2     2     1    1
     3     4     2    1
     4     5     6    1
     5     6     3    1
     6     7     9    1
     7     8     7    1
     8     9    10    1
     9    10    12    1
    10    10    11    1
    11    13     6    1
    12    13     4    1
@<TRIPOS>MOLECULE
*****
 2 1 0 0 0
SMALL
GASTEIGER

@<TRIPOS>ATOM
      1 CL         -6.2120   -6.1000    1.3370 Cl      1  UNL1       -0.1123
      2 C          -7.2880   -5.3820    0.0630 C.3     1  UNL1        0.1123
@<TRIPOS>BOND
     1     2     1    1
@<TRIPOS>MOLECULE
*****
 12 11 0 0 0
SMALL
GASTEIGER

@<TRIPOS>ATOM
      1 O          -3.8530   -6.7440   -3.6550 O.3     1  UNL1       -0.1349
      2 O          -2.0470   -8.0210   -4.7520 O.2     1  UNL1       -0.2248
      3 O          -2.8850   -5.8150   -3.6290 O.3     1  UNL1       -0.1195
      4 O          -4.0360   -4.2460   -5.3760 O.3     1  UNL1       -0.2169
      5 C          -6.1050   -4.9150   -3.9830 C.3     1  UNL1        0.2912
      6 P          -5.3940   -6.5710   -3.5350 P.3     1  UNL1        0.4276
      7 O          -5.8050   -6.8570   -2.1550 O.3     1  UNL1       -0.1360
      8 C          -5.3490   -3.9010   -4.8720 C.3     1  UNL1        0.2276
      9 O          -1.5660   -5.9120   -5.6490 O.2     1  UNL1       -0.2248
     10 P          -2.1320   -6.5620   -4.5470 P.3     1  UNL1        0.5680
     11 O          -6.8010   -4.3390   -2.9050 O.3     1  UNL1       -0.2069
     12 O          -5.9460   -7.5770   -4.6950 O.2     1  UNL1       -0.2505
@<TRIPOS>BOND
     1     1     3    1
     2     1     6    1
     3     2    10    2
     4     4     8    1
     5     5     6    1
     6     5    11    1
     7     6    12    2
     8     6     7    1
     9     8     5    1
    10     9    10    2
    11    10     3    1
@<TRIPOS>MOLECULE
*****
 3 2 0 0 0
SMALL
GASTEIGER

@<TRIPOS>ATOM
      1 C           1.0940    1.9310   -0.6790 C.3     1  UNL1        0.0000
      2 C          -0.5180    1.3310    0.9770 C.3     1  UNL1        0.0000
      3 C          -0.1430    1.1440   -0.2960 C.3     1  UNL1        0.0000
@<TRIPOS>BOND
     1     1     3    1
     2     3     2    1
@<TRIPOS>MOLECULE
*****
 9 8 0 0 0
SMALL
GASTEIGER

@<TRIPOS>ATOM
      1 N          -5.4880   -1.6020    1.7170 N.3     1  UNL1       -0.2141
      2 O          -1.1540    0.0470    1.1820 O.2     1  UNL1       -0.2375
      3 C          -7.7040   -2.7190    0.5790 C.3     1  UNL1        0.0015
      4 C          -4.4180   -0.6760    2.2540 C.3     1  UNL1        0.1360
      5 O          -2.1740   -1.5480    2.2770 O.3     1  UNL1       -0.4394
      6 C          -1.3050   -0.7160    2.1210 C.2     1  UNL1        0.4182
      7 C          -3.2060   -0.9340    2.3690 C.3     1  UNL1        0.2277
      8 C          -5.6910   -2.9040    1.5990 C.3     1  UNL1        0.0888
      9 C          -6.3140   -3.4110    0.7450 C.3     1  UNL1        0.0188
@<TRIPOS>BOND
     1     1     4    1
     2     2     6    2
     3     3     9    1
     4     4     7    1
     5     5     7    1
     6     6     5    1
     7     8     1    1
     8     9     8    1
@<TRIPOS>MOLECULE
*****
 13 13 0 0 0
SMALL
GASTEIGER

@<TRIPOS>ATOM
      1 C          -5.8700   -5.2170   -1.6570 C.2     1  UNL1        0.1754
      2 C          -4.2800   -6.6510   -3.0980 C.3     1  UNL1        0.3978
      3 C          -6.2610   -4.5560    0.2580 C.3     1  UNL1        0.2059
      4 O          -3.2950   -5.9290   -2.9740 O.3     1  UNL1       -0.1551
      5 O          -4.4080   -6.3200   -4.5100 O.3     1  UNL1       -0.1551
      6 O          -4.9600   -7.6800   -3.6350 O.3     1  UNL1       -0.1551
      7 C          -5.7580   -2.2420    1.6190 C.3     1  UNL1        0.0295
      8 C          -5.5700   -3.5220    1.1270 C.3     1  UNL1        0.0520
      9 C          -4.7050   -1.0570    1.6930 C.2     1  UNL1       -0.0306
     10 C          -5.5230   -5.7770   -3.0060 C.2     1  UNL1        0.1078
     11 C          -3.4530   -1.0530    2.1560 C.2     1  UNL1       -0.0304
     12 C          -2.8810    0.3140    2.4510 C.3     1  UNL1        0.0303
     13 O          -5.3520   -5.4710   -0.3950 O.2     1  UNL1       -0.4725
@<TRIPOS>BOND
     1     1    13    1
     2     2    10    1
     3     2     4    1
     4     3     8    1
     5     5     6    1
     6     5     2    1
     7     6     2    1
     8     7     9    1
     9     8     7    1
    10     9    11    2
    11    10     1    2
    12    11    12    1
    13    13     3    1
@<TRIPOS>MOLECULE
*****
 14 13 0 0 0
SMALL
GASTEIGER

@<TRIPOS>ATOM
      1 C          -5.6530   -4.4750    0.5620 C.3     1  UNL1        0.2423
      2 C          -1.5810   -4.9450   -5.4240 C.3     1  UNL1        0.2444
      3 C          -4.9720   -5.5190   -2.0250 C.3     1  UNL1        0.1769
      4 O          -6.4380   -4.2350    3.4350 O.2     1  UNL1       -0.2641
      5 C          -2.8780   -5.6100   -3.4070 C.3     1  UNL1        0.2943
      6 O          -6.4200   -4.1520   -0.5620 O.3     1  UNL1       -0.3434
      7 O          -7.0900   -5.3300    2.1390 O.2     1  UNL1       -0.2641
      8 C          -6.2710   -4.9840   -1.7190 C.3     1  UNL1        0.1745
      9 O          -4.3730   -5.2140   -3.3490 O.3     1  UNL1       -0.3241
     10 C          -6.5970   -4.3110    1.9520 C.3     1  UNL1        0.4549
     11 O          -0.4070   -4.0360   -7.1540 O.2     1  UNL1       -0.2641
     12 O          -1.2690   -2.5810   -5.4290 O.2     1  UNL1       -0.2641
     13 C          -1.4580   -3.7020   -6.2680 C.3     1  UNL1        0.4550
     14 O          -1.8260   -4.6220   -4.0320 O.3     1  UNL1       -0.3184
@<TRIPOS>BOND
     1     1    10    1
     2     2    14    1
     3     3     8    1
     4     5     9    1
     5     6     1    1
     6     8     6    1
     7     9     3    1
     8    10     7    1
     9    10     4    1
    10    11    13    1
    11    13    12    1
    12    13     2    1
    13    14     5    1
@<TRIPOS>MOLECULE
*****
 28 29 0 0 0
SMALL
GASTEIGER

@<TRIPOS>ATOM
      1 O          -5.3610   -6.1140    1.1930 O.2     1  UNL1       -0.2693
      2 N          -5.9530   -3.9440    0.9240 N.am    1  UNL1       -0.1923
      3 C          -5.1140   -5.3610   -2.8200 C.3     1  UNL1        0.0048
      4 C          -2.7170   -1.8020    3.4850 C.3     1  UNL1        0.1651
      5 C          -6.1260   -4.5480   -3.6320 C.3     1  UNL1        0.0293
      6 N           0.6170   -1.3090    1.7830 N.3     1  UNL1       -0.2194
      7 C          -2.3330   -1.3510    2.5430 C.3     1  UNL1        0.0514
      8 O          -2.4510   -1.7530    4.6210 O.3     1  UNL1       -0.3337
      9 C          -2.8310   -6.0040   -3.7300 C.3     1  UNL1        0.0000
     10 C           1.2690   -0.0560    0.0290 C.3     1  UNL1        0.0189
     11 C          -0.0600    0.7520    0.6210 C.3     1  UNL1        0.0029
     12 C          -7.5500   -5.1060   -3.4850 C.2     1  UNL1        0.0139
     13 C          -6.2260   -5.2440    0.7080 C.2     1  UNL1        0.2863
     14 C          -0.6490    0.0270    1.6490 C.3     1  UNL1        0.0175
     15 C          -5.0040   -3.7670    4.4440 C.3     1  UNL1        0.2821
     16 O          -7.5880   -4.5510   -1.0260 O.2     1  UNL1       -0.4628
     17 C          -2.2920   -7.1340   -4.8340 C.3     1  UNL1        0.0000
     18 C          -5.3370   -2.2810    2.6960 C.2     1  UNL1        0.2513
     19 C          -8.3110   -5.0570   -2.1320 C.2     1  UNL1        0.1684
     20 C          -3.6600   -1.8700    4.4710 C.3     1  UNL1        0.2240
     21 O          -5.4090   -1.1580    2.1790 O.2     1  UNL1       -0.2728
     22 C          -6.2780   -3.3950    2.1680 C.3     1  UNL1        0.2000
     23 C           1.4330   -0.8220    0.9800 C.3     1  UNL1        0.0886
     24 C          -4.3590   -6.2600   -3.7880 C.3     1  UNL1        0.0003
     25 C          -7.5460   -5.5780    0.0170 C.3     1  UNL1        0.2913
     26 N          -4.6060   -2.7130    3.8620 N.am    1  UNL1       -0.2254
     27 C          -0.7350   -0.8240    2.4180 C.3     1  UNL1        0.0753
     28 O          -5.5480   -4.7020    4.7150 O.3     1  UNL1       -0.1957
@<TRIPOS>BOND
     1     2    22    1
     2     4     7    1
     3     4    20    1
     4     4     8    1
     5     5    12    1
     6     5     3    1
     7     6    27    1
     8    10    11    1
     9    10    23    1
    10    11    14    1
    11    12    19    2
    12    13     2   am
    13    13     1    2
    14    14    27    1
    15    15    28    1
    16    16    25    1
    17    17     9    1
    18    18    26   am
    19    19    16    1
    20    20    26    1
    21    20     8    1
    22    21    18    2
    23    22    18    1
    24    23     6    1
    25    24     9    1
    26    24     3    1
    27    25    13    1
    28    26    15    1
    29    27     7    1
@<TRIPOS>MOLECULE
*****
 5 4 0 0 0
SMALL
GASTEIGER

@<TRIPOS>ATOM
      1 C          -0.0090   -0.0610    0.5560 C.3     1  UNL1        0.0761
      2 C          -2.1860   -0.5490    2.2300 C.1     1  UNL1       -0.0900
      3 C           1.3280   -0.6910    1.0260 C.3     1  UNL1        0.0150
      4 C          -3.6760   -0.8860    2.6020 C.3     1  UNL1        0.0900
      5 C          -1.1430   -0.2040    1.7320 C.1     1  UNL1       -0.0910
@<TRIPOS>BOND
     1     1     3    1
     2     1     5    1
     3     2     4    1
     4     5     2    3
@<TRIPOS>MOLECULE
*****
 12 11 0 0 0
SMALL
GASTEIGER

@<TRIPOS>ATOM
      1 C          -5.5000   -5.2220   -2.4530 C.2     1  UNL1        0.1821
      2 C          -4.0380   -5.3920   -3.1260 C.3     1  UNL1        0.0922
      3 O          -5.4870   -4.2330    2.0190 O.3     1  UNL1       -0.2176
      4 C          -6.3190   -5.0390    1.1980 C.3     1  UNL1        0.2140
      5 S          -2.2290   -6.1560   -4.4070 S.3     1  UNL1       -0.0179
      6 O          -1.7070   -5.0670   -3.5870 O.3     1  UNL1       -0.0782
      7 O          -5.4170   -5.5240    0.0240 O.3     1  UNL1       -0.3431
      8 C          -5.4670   -5.3280   -1.1840 C.3     1  UNL1        0.2062
      9 O          -1.7400   -6.0960   -5.7970 O.3     1  UNL1       -0.0782
     10 C          -3.9710   -5.9440   -4.2880 C.3     1  UNL1        0.1557
     11 C          -5.6850   -6.3220    1.0950 C.3     1  UNL1        0.1782
     12 O          -6.5790   -4.8900   -2.8090 O.2     1  UNL1       -0.2934
@<TRIPOS>BOND
     1     1     8    1
     2     2     1    1
     3     4     3    1
     4     5    10    1
     5     5     6    1
     6     7    11    1
     7     8     7    1
     8     9     5    1
     9    10     2    1
    10    11     4    1
    11    12     1    2
@<TRIPOS>MOLECULE
*****
 11 11 0 0 0
SMALL
GASTEIGER

@<TRIPOS>ATOM
      1 O          -5.7120   -4.4010   -3.4400 O.3     1  UNL1       -0.2204
      2 C          -7.6260   -6.2120   -2.0840 C.3     1  UNL1        0.0684
      3 C          -6.4410   -4.7950   -0.2120 C.3     1  UNL1        0.0331
      4 C          -6.0820   -5.6650   -1.5190 C.3     1  UNL1        0.1570
      5 N          -5.7750   -2.7880    2.3120 N.3     1  UNL1       -0.1329
      6 C          -5.5990   -3.9870    0.1110 C.3     1  UNL1        0.0041
      7 C          -5.5180   -3.2020    1.4210 C.3     1  UNL1        0.0919
      8 O          -4.6630   -5.8140   -1.4930 O.3     1  UNL1       -0.2230
      9 C          -6.4700   -5.5190   -2.9800 C.3     1  UNL1        0.1822
     10 C          -5.3930   -4.4670    1.6300 C.3     1  UNL1        0.0205
     11 C          -5.8970   -3.0390    0.9430 C.3     1  UNL1        0.0191
@<TRIPOS>BOND
     1     2     4    1
     2     3     6    1
     3     4     8    1
     4     4     3    1
     5     6    11    1
     6     7    10    1
     7     7     5    1
     8     9     1    1
     9     9     2    1
    10     9     4    1
    11    11     7    1
@<TRIPOS>MOLECULE
*****
 12 13 0 0 0
SMALL
GASTEIGER

@<TRIPOS>ATOM
      1 C          -5.0980   -6.9030   -1.8770 C.2     1  UNL1        0.0353
      2 O          -1.0140   -6.1860   -3.2560 O.3     1  UNL1       -0.1552
      3 F          -6.7500   -8.4630   -1.3300 F       1  UNL1       -0.1586
      4 C          -4.4680   -4.9280   -3.6570 C.2     1  UNL1       -0.0225
      5 S          -5.3100   -8.1580   -0.7940 S.3     1  UNL1        0.0782
      6 C          -3.7340   -6.6830   -2.2650 C.2     1  UNL1        0.0072
      7 O          -1.8020   -4.0970   -3.8780 O.3     1  UNL1       -0.1552
      8 C          -6.1250   -6.4410   -2.5560 C.3     1  UNL1        0.0398
      9 C          -3.4510   -5.7770   -3.1910 C.2     1  UNL1        0.0605
     10 C          -2.0690   -5.4420   -3.6370 C.3     1  UNL1        0.3946
     11 C          -5.7980   -5.1970   -3.2630 C.3     1  UNL1        0.0312
     12 O          -1.2580   -6.1040   -4.4670 O.3     1  UNL1       -0.1552
@<TRIPOS>BOND
     1     1     5    1
     2     3     5    1
     3     4    11    1
     4     4     9    2
     5     6     1    2
     6     7    10    1
     7     8     1    1
     8     9     6    1
     9    10     2    1
    10    10     9    1
    11    11     8    1
    12    12    10    1
    13    12     2    1
@<TRIPOS>MOLECULE
*****
 17 16 0 0 0
SMALL
GASTEIGER

@<TRIPOS>ATOM
      1 C          -4.6920   -2.7210    3.5530 C.2     1  UNL1        0.3929
      2 P          -3.3350   -6.7010   -4.7130 P.3     1  UNL1        0.1470
      3 O          -1.9990   -7.3820   -4.9780 O.3     1  UNL1       -0.3555
      4 C          -5.9810   -3.5620    1.3820 C.2     1  UNL1        0.3459
      5 C          -6.1850   -5.1400   -3.0580 C.3     1  UNL1        0.1466
      6 O          -7.0140   -3.0180    0.8710 O.2     1  UNL1       -0.2479
      7 O          -4.4230   -6.3480   -5.8200 O.2     1  UNL1       -0.4576
      8 CA         -5.6480   -3.4800    2.8480 C.3     1  UNL1        0.2921
      9 N          -5.6060   -4.9910    3.3330 N.3     1  UNL1       -0.1089
     10 O          -4.7390   -1.5870    3.7150 O.co2   1  UNL1       -0.2434
     11 C          -5.5730   -5.5520   -0.7790 C.3     1  UNL1        0.2111
     12 C          -3.9650   -6.3490   -3.1470 C.3     1  UNL1        0.2001
     13 O          -2.4530   -4.8480   -4.8910 O.3     1  UNL1       -0.3555
     14 C          -6.6840   -4.8810   -1.6250 C.3     1  UNL1        0.0795
     15 OXT        -3.7730   -3.4580    4.1830 O.co2   1  UNL1       -0.2434
     16 O          -5.4060   -4.4870    0.3800 O.3     1  UNL1       -0.4470
     17 O          -4.7540   -5.0640   -3.1110 O.3     1  UNL1       -0.3458
@<TRIPOS>BOND
     1     1    10   ar
     2     1    15   ar
     3     2    12    1
     4     3     2    1
     5     4     8    1
     6     5    14    1
     7     6     4    2
     8     7     2    2
     9     8     9    1
    10     8     1    1
    11    11    16    1
    12    12    17    1
    13    13     2    1
    14    14    11    1
    15    16     4    1
    16    17     5    1
@<TRIPOS>MOLECULE
*****
 9 10 0 0 0
SMALL
GASTEIGER

@<TRIPOS>ATOM
      1 C           0.3370    0.0910   -2.4270 C.3     1  UNL1        0.0347
      2 C           1.9040   -1.0530   -0.2480 C.3     1  UNL1        0.2034
      3 O           0.3780   -1.4310    1.8120 O.3     1  UNL1       -0.1899
      4 C           1.4140   -1.0380   -2.5560 C.3     1  UNL1        0.1425
      5 C           0.5020    0.2040   -1.4810 C.3     1  UNL1        0.0375
      6 C           0.0180    0.3120    0.3440 C.3     1  UNL1        0.1743
      7 O           2.2590   -1.3740   -1.3030 O.3     1  UNL1       -0.3484
      8 O           0.8610    1.0750    1.1090 O.3     1  UNL1       -0.3258
      9 C           0.9380   -0.6350    0.8650 C.3     1  UNL1        0.2717
@<TRIPOS>BOND
     1     1     5    1
     2     2     9    1
     3     4     1    1
     4     4     7    1
     5     6     5    1
     6     6     9    1
     7     6     8    1
     8     7     2    1
     9     9     8    1
    10     9     3    1
@<TRIPOS>MOLECULE
*****
 8 7 0 0 0
SMALL
GASTEIGER

@<TRIPOS>ATOM
      1 C          -1.0450   -4.4200   -3.7070 C.3     1  UNL1        0.2080
      2 N          -0.1230   -2.3360   -2.6410 N.am    1  UNL1       -0.0624
      3 O           0.0010   -3.5600   -3.1960 O.3     1  UNL1       -0.2412
      4 C          -0.1710   -1.2520   -1.8540 C.2     1  UNL1        0.2689
      5 N           0.6110    2.3850   -0.9460 N.3     1  UNL1       -0.1308
      6 C           0.4820    0.8630   -0.9990 C.3     1  UNL1        0.1190
      7 C           0.4840    0.1480   -2.1820 C.3     1  UNL1        0.1096
      8 O          -0.9730   -1.3340   -0.7760 O.2     1  UNL1       -0.2710
@<TRIPOS>BOND
     1     1     3    1
     2     2     4   am
     3     3     2    1
     4     4     8    2
     5     6     5    1
     6     7     4    1
     7     7     6    1
@<TRIPOS>MOLECULE
*****
 10 12 0 0 0
SMALL
GASTEIGER

@<TRIPOS>ATOM
      1 C          -5.5030   -5.2970   -1.1460 C.3     1  UNL1        0.1522
      2 C          -6.2510   -6.6560   -1.3090 C.3     1  UNL1        0.1522
      3 O          -5.1290   -6.4150   -0.6190 O.3     1  UNL1       -0.3531
      4 C          -5.6300   -5.9800   -2.5590 C.3     1  UNL1        0.1414
      5 O          -5.5120   -6.6550   -6.1020 O.3     1  UNL1       -0.2201
      6 O          -3.3940   -5.1340   -3.2000 O.2     1  UNL1       -0.2752
      7 C          -4.6450   -5.2790   -3.7350 C.3     1  UNL1        0.3587
      8 O          -5.2390   -4.3040   -4.4680 O.2     1  UNL1       -0.2752
      9 C          -5.2390   -6.7870   -3.8290 C.3     1  UNL1        0.1291
     10 C          -4.5000   -7.1630   -5.2340 C.3     1  UNL1        0.1900
@<TRIPOS>BOND
     1     1     3    1
     2     2     1    1
     3     2     3    1
     4     4     7    1
     5     4     2    1
     6     4     1    1
     7     5    10    1
     8     7     6    1
     9     8     7    1
    10     9    10    1
    11     9     7    1
    12     9     4    1
@<TRIPOS>MOLECULE
*****
 5 4 0 0 0
SMALL
GASTEIGER

@<TRIPOS>ATOM
      1 C          -5.5980   -5.7890   -1.2950 C.2     1  UNL1        0.3811
      2 O          -5.0280   -4.9430   -0.3130 O.co2   1  UNL1       -0.2442
      3 C          -6.8100   -5.2390   -2.2050 C.3     1  UNL1        0.2083
      4 CL         -7.5420   -3.8130   -1.5690 Cl      1  UNL1       -0.1009
      5 O          -5.0990   -7.1130   -1.3350 O.co2   1  UNL1       -0.2442
@<TRIPOS>BOND
     1     1     2   ar
     2     3     4    1
     3     3     1    1
     4     5     1   ar
@<TRIPOS>MOLECULE
*****
 13 13 0 0 0
SMALL
GASTEIGER

@<TRIPOS>ATOM
      1 C          -7.6710   -4.2320   -1.4110 C.3     1  UNL1        0.0000
      2 O          -3.8070   -0.9310    3.2670 O.3     1  UNL1       -0.2231
      3 C          -6.8190   -5.2140   -0.6040 C.3     1  UNL1        0.0000
      4 C          -5.7990   -0.9390    3.9320 C.3     1  UNL1        0.0355
      5 C          -5.6160   -5.5040   -1.4510 C.3     1  UNL1        0.0000
      6 C          -7.4250   -4.9090   -2.7980 C.3     1  UNL1        0.0000
      7 C          -5.1960   -1.4560    3.1300 C.3     1  UNL1        0.1521
      8 C          -5.0340   -3.0930    1.6260 C.3     1  UNL1        0.0026
      9 C          -7.8860   -4.0520   -3.9950 C.3     1  UNL1        0.0000
     10 C          -5.9450   -5.0850   -2.8730 C.3     1  UNL1        0.0000
     11 C          -5.9750   -5.0410    0.6210 C.3     1  UNL1        0.0000
     12 C          -6.1990   -3.5490    0.8410 C.3     1  UNL1        0.0001
     13 C          -5.3610   -1.6120    1.7750 C.3     1  UNL1        0.0329
@<TRIPOS>BOND
     1     1     3    1
     2     3    11    1
     3     5     3    1
     4     6     9    1
     5     6     1    1
     6     7     2    1
     7     7     4    1
     8     8    13    1
     9    10     6    1
    10    10     5    1
    11    11    12    1
    12    12     8    1
    13    13     7    1
@<TRIPOS>MOLECULE
*****
 14 13 0 0 0
SMALL
GASTEIGER

@<TRIPOS>ATOM
      1 O          -6.1070   -2.9700    3.9540 O.3     1  UNL1       -0.3506
      2 C          -2.4340   -5.7180   -3.9670 C.3     1  UNL1        0.1781
      3 C          -5.3940   -5.5220   -2.0020 C.2     1  UNL1        0.0472
      4 C          -5.2590   -5.3050   -0.7470 C.1     1  UNL1       -0.0997
      5 C          -4.6540   -5.8700   -2.9670 C.3     1  UNL1        0.1766
      6 C          -2.0730   -4.9460   -5.2580 C.3     1  UNL1        0.2140
      7 C          -6.3420   -4.8900    2.7070 C.3     1  UNL1        0.1018
      8 O          -5.2580   -3.2030    1.2340 O.2     1  UNL1       -0.2906
      9 C          -6.7700   -4.1530    3.9190 C.3     1  UNL1        0.1504
     10 O          -3.7920   -6.0360   -3.9150 O.3     1  UNL1       -0.3456
     11 C          -5.4680   -5.4000    0.5720 C.2     1  UNL1        0.0786
     12 C          -5.6530   -4.2700    1.4990 C.2     1  UNL1        0.1832
     13 O          -1.6690   -3.6580   -5.0060 O.3     1  UNL1       -0.2176
     14 C          -6.7470   -1.9270    3.4000 C.3     1  UNL1        0.1741
@<TRIPOS>BOND
     1     2    10    1
     2     3     4    2
     3     4    11    2
     4     5     3    1
     5     6    13    1
     6     6     2    1
     7     7     9    1
     8     8    12    2
     9     9     1    1
    10    10     5    1
    11    11    12    1
    12    12     7    1
    13    14     1    1
@<TRIPOS>MOLECULE
*****
 6 5 0 0 0
SMALL
GASTEIGER

@<TRIPOS>ATOM
      1 C          -0.7970    0.3220    2.4110 C.3     1  UNL1        0.1395
      2 O          -1.1260   -1.7300    1.8510 O.3     1  UNL1       -0.1179
      3 C          -0.2970    0.6560    1.0920 C.3     1  UNL1        0.2019
      4 C          -2.7770   -0.6600    2.9000 C.3     1  UNL1        0.1240
      5 N          -2.0120   -0.7790    1.9150 N.3     1  UNL1       -0.1288
      6 O           0.3080   -0.4610    0.8560 O.3     1  UNL1       -0.2188
@<TRIPOS>BOND
     1     2     5    1
     2     3     1    1
     3     5     1    1
     4     5     4    1
     5     6     3    1
@<TRIPOS>MOLECULE
*****
 11 10 0 0 0
SMALL
GASTEIGER

@<TRIPOS>ATOM
      1 C          -5.2130   -5.3210   -0.9160 C.3     1  UNL1        0.0035
      2 O          -6.9000   -2.3330    1.6240 O.3     1  UNL1       -0.1145
      3 C          -4.3740   -5.6250   -1.1470 C.3     1  UNL1        0.0126
      4 O          -5.0370   -3.4720    0.4860 O.3     1  UNL1       -0.2703
      5 C          -3.9140   -3.2440   -0.5130 C.3     1  UNL1        0.1538
      6 C          -4.8360   -4.2480   -1.0060 C.3     1  UNL1        0.0327
      7 C          -3.2540   -6.3270   -1.8270 C.3     1  UNL1        0.0687
      8 S          -2.3720   -4.5870   -1.5710 S.3     1  UNL1       -0.0821
      9 P          -5.3630   -2.3080    1.5820 P.3     1  UNL1        0.5326
     10 O          -5.0110   -3.3190    2.6010 O.3     1  UNL1       -0.1145
     11 O          -4.9680   -0.9630    1.4060 O.2     1  UNL1       -0.2224
@<TRIPOS>BOND
     1     3     1    1
     2     4     9    1
     3     5     4    1
     4     6     1    1
     5     6     5    1
     6     7     8    1
     7     7     3    1
     8     9     2    1
     9     9    10    1
    10    11     9    2
@<TRIPOS>MOLECULE
*****
 13 12 0 0 0
SMALL
GASTEIGER

@<TRIPOS>ATOM
      1 O          -5.7020   -4.8310   -3.0960 O.3     1  UNL1       -0.1358
      2 C          -3.3080   -5.7260   -3.5700 C.3     1  UNL1        0.3757
      3 C          -7.7520   -5.7150    0.9470 C.3     1  UNL1        0.2174
      4 O          -2.5670   -6.7940   -3.1480 O.3     1  UNL1       -0.1759
      5 C          -3.4340   -5.9570   -6.0170 C.3     1  UNL1        0.1775
      6 P          -4.7420   -5.9730   -2.8720 P.3     1  UNL1        0.4280
      7 O          -7.2570   -5.5050    2.2300 O.3     1  UNL1       -0.2175
      8 C          -6.2050   -6.2280   -0.9850 C.3     1  UNL1        0.1870
      9 O          -4.8350   -6.3190   -1.4400 O.3     1  UNL1       -0.2865
     10 O          -4.9240   -7.2230   -3.6820 O.2     1  UNL1       -0.2502
     11 O          -5.8830   -4.1610    0.4940 O.3     1  UNL1       -0.2176
     12 O          -3.5400   -5.2200   -4.7920 O.3     1  UNL1       -0.3168
     13 C          -6.6980   -5.2180    0.0240 C.3     1  UNL1        0.2146
@<TRIPOS>BOND
     1     1     6    1
     2     2     4    1
     3     2     6    1
     4     3     7    1
     5     5    12    1
     6     6    10    2
     7     6     9    1
     8     8    13    1
     9     9     8    1
    10    12     2    1
    11    13    11    1
    12    13     3    1
@<TRIPOS>MOLECULE
*****
 13 12 0 0 0
SMALL
GASTEIGER

@<TRIPOS>ATOM
      1 C          -6.0490   -3.4530    1.3180 C.2     1  UNL1        0.3653
      2 C          -3.4830   -5.7200   -3.0150 C.3     1  UNL1        0.0196
      3 C          -4.8000   -5.9050   -2.7810 C.3     1  UNL1        0.0651
      4 C          -6.0800   -4.7130   -1.0430 C.3     1  UNL1        0.0763
      5 C          -6.1730   -4.4290    0.3240 C.3     1  UNL1        0.1218
      6 C          -1.7590   -5.5170   -4.7130 C.2     1  UNL1        0.3649
      7 C          -5.4620   -5.9480   -1.4840 C.2     1  UNL1        0.1512
      8 O          -2.1560   -4.5420   -5.1480 O.co2   1  UNL1       -0.2457
      9 C          -2.7500   -6.4480   -4.0480 C.3     1  UNL1        0.1145
     10 O          -5.4040   -3.6760    2.4130 O.co2   1  UNL1       -0.2456
     11 O          -6.6470   -2.3430    1.1360 O.co2   1  UNL1       -0.2456
     12 O          -0.6750   -6.0590   -4.9930 O.co2   1  UNL1       -0.2457
     13 O          -5.8600   -6.6260   -0.5330 O.2     1  UNL1       -0.2960
@<TRIPOS>BOND
     1     1    10   ar
     2     2     3    1
     3     3     7    1
     4     4     5    1
     5     5     1    1
     6     6     9    1
     7     7     4    1
     8     7    13    2
     9     8     6   ar
    10     9     2    1
    11    11     1   ar
    12    12     6   ar
@<TRIPOS>MOLECULE
*****
 19 20 0 0 0
SMALL
GASTEIGER

@<TRIPOS>ATOM
      1 P          -5.1370   -3.9140   -6.0560 P.3     1  UNL1        0.1172
      2 C          -6.4940   -5.2140   -2.9940 C.3     1  UNL1        0.0325
      3 O          -4.1600   -4.5750    3.3470 O.3     1  UNL1       -0.3309
      4 C          -7.1110   -3.8580    0.4210 C.3     1  UNL1        0.0297
      5 O          -5.6160   -3.7420   -7.4560 O.2     1  UNL1       -0.4601
      6 C          -5.4470   -5.5510    1.2630 C.3     1  UNL1        0.0592
      7 C          -5.3070   -4.6680    2.4780 C.3     1  UNL1        0.1204
      8 O          -5.6440   -5.5080   -0.8510 O.3     1  UNL1       -0.3562
      9 C          -5.1550   -2.8230    3.4370 C.3     1  UNL1        0.0668
     10 O          -6.0890   -2.9820   -5.0800 O.3     1  UNL1       -0.3571
     11 C          -5.6800   -5.3080   -5.3710 C.3     1  UNL1        0.0590
     12 C          -6.9380   -2.9660    1.2970 C.3     1  UNL1        0.0051
     13 C          -6.4950   -5.0790    0.2010 C.3     1  UNL1        0.1176
     14 C          -5.5220   -3.1760    2.0850 C.3     1  UNL1        0.0326
     15 O          -5.2770   -4.1660    5.4300 O.3     1  UNL1       -0.1899
     16 C          -5.4000   -5.3550   -3.8990 C.3     1  UNL1        0.0103
     17 C          -4.4020   -3.5760    4.3470 C.3     1  UNL1        0.2689
     18 C          -6.0740   -6.2730   -1.9030 C.3     1  UNL1        0.1421
     19 O          -3.8740   -3.6730   -6.0280 O.3     1  UNL1       -0.3571
@<TRIPOS>BOND
     1     1    19    1
     2     1    11    1
     3     1    10    1
     4     2    18    1
     5     3    17    1
     6     4    12    1
     7     5     1    2
     8     7     6    1
     9     7     3    1
    10     9    17    1
    11    11    16    1
    12    13     8    1
    13    13     4    1
    14    13     6    1
    15    14    12    1
    16    14     7    1
    17    14     9    1
    18    16     2    1
    19    17    15    1
    20    18     8    1
@<TRIPOS>MOLECULE
*****
 8 8 0 0 0
SMALL
GASTEIGER

@<TRIPOS>ATOM
      1 C          -6.3330   -6.3400   -0.2350 C.3     1  UNL1        0.0888
      2 C          -6.6580   -4.9620    0.9200 C.3     1  UNL1        0.0214
      3 C          -4.9210   -6.6900    1.2880 C.3     1  UNL1        0.0354
      4 C          -5.5210   -6.6960    2.6790 C.3     1  UNL1        0.1521
      5 C          -5.3370   -5.3180    1.5820 C.3     1  UNL1        0.0344
      6 O          -5.8930   -8.1020    3.0620 O.3     1  UNL1       -0.2231
      7 C          -7.5580   -7.4840    1.3230 C.3     1  UNL1        0.1075
      8 N          -6.6120   -7.7330    0.3240 N.3     1  UNL1       -0.2165
@<TRIPOS>BOND
     1     1     8    1
     2     1     2    1
     3     3     5    1
     4     3     4    1
     5     4     6    1
     6     5     2    1
     7     5     4    1
     8     8     7    1
@<TRIPOS>MOLECULE
*****
 9 8 0 0 0
SMALL
GASTEIGER

@<TRIPOS>ATOM
      1 C          -2.5250   -7.4600   -4.4820 C.3     0  UNK0        0.2736
      2 CB         -4.9000   -4.6260   -5.6150 C.3     1  SER1        0.2109
      3 O          -6.4970   -4.7230   -3.2100 O.co2   1  SER1       -0.2440
      4 C          -5.3900   -5.6890   -3.4790 C.2     1  SER1        0.3830
      5 OG         -5.3170   -3.2200   -5.3010 O.3     1  SER1       -0.2182
      6 O          -1.5850   -6.1740   -3.8480 O.3     0  UNK0       -0.1992
      7 N          -3.7660   -6.6290   -5.0560 N.3     1  SER1       -0.1732
      8 OXT        -4.7730   -6.2710   -2.4200 O.co2   1  SER1       -0.2440
      9 CA         -4.4270   -5.6680   -4.3410 C.3     1  SER1        0.2110
@<TRIPOS>BOND
     1     1     6    1
     2     2     5    1
     3     4     3   ar
     4     4     8   ar
     5     7     1    1
     6     7     9    1
     7     9     2    1
     8     9     4    1
@<TRIPOS>MOLECULE
*****
 9 9 0 0 0
SMALL
GASTEIGER

@<TRIPOS>ATOM
      1 C          -5.0120   -5.0860   -1.3260 C.2     1  UNL1       -0.0091
      2 C          -3.9590   -6.6660   -3.0410 C.3     1  UNL1        0.0264
      3 C          -4.9190   -7.6970   -2.5700 C.3     1  UNL1        0.0093
      4 C          -5.4510   -6.2830    0.9260 C.2     1  UNL1        0.0048
      5 C          -5.6270   -5.2550    1.7810 C.3     1  UNL1        0.2080
      6 O          -6.2520   -4.2310    1.2360 O.3     1  UNL1       -0.2152
      7 C          -5.3450   -7.5800   -1.1330 C.3     1  UNL1        0.0264
      8 C          -5.2860   -6.2880   -0.5090 C.2     1  UNL1       -0.0242
      9 C          -4.4270   -5.2830   -2.6580 C.2     1  UNL1       -0.0265
@<TRIPOS>BOND
     1     1     8    1
     2     2     9    1
     3     2     3    1
     4     3     7    1
     5     4     5    1
     6     6     5    1
     7     7     8    1
     8     8     4    2
     9     9     1    2
@<TRIPOS>MOLECULE
*****
 13 12 0 0 0
SMALL
GASTEIGER

@<TRIPOS>ATOM
      1 C          -5.7220   -4.8080   -0.0800 C.1     1  UNL1       -0.0608
      2 C          -3.1580   -6.7160   -3.7860 C.3     1  UNL1        0.0081
      3 C          -4.7060   -6.3080   -1.8330 C.3     1  UNL1        0.0345
      4 C          -0.6510   -4.5390   -5.5280 C.3     1  UNL1        0.1000
      5 C          -1.9040   -4.9250   -4.9540 C.2     1  UNL1        0.1533
      6 C          -6.4860   -4.6980    1.0810 C.2     1  UNL1        0.2760
      7 O          -1.2230   -2.2910   -5.9750 O.3     1  UNL1       -0.2199
      8 C          -1.8450   -6.0340   -4.0090 C.3     1  UNL1        0.0646
      9 C          -4.2490   -5.9770   -3.2580 C.3     1  UNL1        0.0058
     10 O          -5.9330   -4.8650    2.4050 O.2     1  UNL1       -0.2739
     11 O          -2.9260   -4.4070   -5.4240 O.2     1  UNL1       -0.2960
     12 C          -5.3350   -5.0820   -1.2290 C.2     1  UNL1        0.0185
     13 C          -0.4040   -3.1050   -5.2340 C.3     1  UNL1        0.1899
@<TRIPOS>BOND
     1     1     6    2
     2     2     9    1
     3     3    12    1
     4     4    13    1
     5     4     5    1
     6     5     8    1
     7     6    10    1
     8     7    13    1
     9     8     2    1
    10     9     3    1
    11    11     5    2
    12    12     1    2
@<TRIPOS>MOLECULE
*****
 13 12 0 0 0
SMALL
GASTEIGER

@<TRIPOS>ATOM
      1 C          -5.8630   -3.6000    1.8580 C.3     1  UNL1        0.1609
      2 S           0.4640   -0.0630    3.5080 S.3     1  UNL1       -0.0811
      3 C          -2.1270    0.0690    2.5820 C.3     1  UNL1        0.0869
      4 S          -1.4400    1.3310    1.4980 S.3     1  UNL1       -0.0806
      5 C          -1.0590   -0.9030    2.8600 C.3     1  UNL1        0.0817
      6 C          -3.2890   -0.5570    1.9320 C.3     1  UNL1        0.1013
      7 N          -3.4250   -1.9420    2.4830 N.3     1  UNL1       -0.2144
      8 C          -5.4120   -5.2920   -2.5910 C.3     1  UNL1        0.0026
      9 O          -5.3050   -4.3110    0.4270 O.3     1  UNL1       -0.3522
     10 C          -6.1610   -5.9710   -1.3870 C.3     1  UNL1        0.0321
     11 C          -4.0490   -5.8170   -2.9190 C.3     1  UNL1        0.0001
     12 C          -4.7400   -2.5640    2.1590 C.3     1  UNL1        0.1207
     13 C          -6.3510   -5.2760   -0.0030 C.3     1  UNL1        0.1422
@<TRIPOS>BOND
     1     1    12    1
     2     3     4    1
     3     3     5    1
     4     5     2    1
     5     6     7    1
     6     6     3    1
     7     8    10    1
     8     9     1    1
     9    10    13    1
    10    11     8    1
    11    12     7    1
    12    13     9    1
@<TRIPOS>MOLECULE
*****
 7 6 0 0 0
SMALL
GASTEIGER

@<TRIPOS>ATOM
      1 O          -5.5700   -4.7350    1.8770 O.3     1  UNL1       -0.3571
      2 O          -5.6880   -8.1620   -0.3950 O.3     1  UNL1       -0.2199
      3 O          -4.9150   -4.7160   -0.1780 O.2     1  UNL1       -0.4600
      4 C          -6.8870   -5.8390   -0.2980 C.3     1  UNL1        0.0944
      5 C          -5.5790   -6.7060   -0.3640 C.3     1  UNL1        0.1898
      6 P          -6.0540   -4.4470    0.6230 P.3     1  UNL1        0.1198
      7 O          -6.9640   -3.3590    0.5480 O.3     1  UNL1       -0.3571
@<TRIPOS>BOND
     1     2     5    1
     2     3     6    2
     3     4     6    1
     4     5     4    1
     5     6     1    1
     6     7     6    1
@<TRIPOS>MOLECULE
*****
 14 15 0 0 0
SMALL
GASTEIGER

@<TRIPOS>ATOM
      1 C          -2.0440   -5.3070   -3.9000 C.3     1  UNL1        0.1636
      2 C          -3.0870   -4.3210   -5.8810 C.3     1  UNL1        0.1636
      3 C          -3.1920   -6.3920   -3.9420 C.3     1  UNL1        0.1242
      4 N          -5.7980   -5.4020    1.7460 N.1     1  UNL1       -0.1893
      5 C          -5.2810   -5.3480   -3.0090 C.ar    1  UNL1        0.1358
      6 N          -6.3830   -4.8180   -3.3220 N.ar    1  UNL1       -0.2090
      7 N          -7.2930   -4.6430   -1.1760 N.ar    1  UNL1       -0.2134
      8 C          -6.0020   -5.4810    0.6190 C.1     1  UNL1        0.1199
      9 O          -1.7600   -4.7630   -5.2210 O.3     1  UNL1       -0.3501
     10 N          -4.3490   -5.5210   -4.0530 N.pl3   1  UNL1       -0.2880
     11 C          -7.3570   -4.4080   -2.5460 C.ar    1  UNL1        0.2007
     12 C          -5.0450   -5.5960   -1.6910 C.ar    1  UNL1        0.0640
     13 C          -4.4270   -4.9580   -5.4530 C.3     1  UNL1        0.1242
     14 C          -6.2060   -5.2710   -0.7290 C.ar    1  UNL1        0.1537
@<TRIPOS>BOND
     1     2    13    1
     2     2     9    1
     3     3     1    1
     4     5    12   ar
     5     6     5   ar
     6     6    11   ar
     7     7    14   ar
     8     8     4    3
     9     9     1    1
    10    10     3    1
    11    10     5    1
    12    11     7   ar
    13    12    14   ar
    14    13    10    1
    15    14     8    1
@<TRIPOS>MOLECULE
*****
 14 15 0 0 0
SMALL
GASTEIGER

@<TRIPOS>ATOM
      1 C          -5.9900   -3.4740    1.7530 C.3     1  UNL1        0.0049
      2 C          -5.3080   -4.9460   -1.4740 C.2     1  UNL1        0.0188
      3 S          -4.6970   -8.5130   -0.6060 S.2     1  UNL1       -0.0459
      4 C          -4.1330   -8.2560   -2.2240 C.ar    1  UNL1        0.1359
      5 C          -4.8530   -6.2710   -1.6590 C.ar    1  UNL1        0.1029
      6 C          -5.7990   -1.9700    1.9630 C.3     1  UNL1        0.0330
      7 C          -6.5060   -3.6580    0.3080 C.3     1  UNL1        0.0290
      8 C          -5.2180   -6.9120   -0.4830 C.ar    1  UNL1        0.1244
      9 C          -5.2000   -1.3680    3.1210 C.3     1  UNL1        0.1521
     10 N          -5.8540   -6.0620    0.3080 N.2     1  UNL1       -0.2598
     11 C          -5.8340   -4.8880   -0.2560 C.3     1  UNL1        0.1274
     12 C          -6.4000   -1.3220    4.1370 C.3     1  UNL1        0.0355
     13 O          -4.1980   -2.0020    3.9130 O.3     1  UNL1       -0.2231
     14 N          -4.2800   -7.0490   -2.5690 N.ar    1  UNL1       -0.2350
@<TRIPOS>BOND
     1     1     6    1
     2     2    11    1
     3     3     8   ar
     4     4     3   ar
     5     5     2    2
     6     5     8   ar
     7     6     9    1
     8     7     1    1
     9     8    10    2
    10     9    13    1
    11     9    12    1
    12    11     7    1
    13    11    10    1
    14    14     4   ar
    15    14     5   ar
@<TRIPOS>MOLECULE
*****
 8 8 0 0 0
SMALL
GASTEIGER

@<TRIPOS>ATOM
      1 C          -5.6300   -5.0290   -1.0220 C.3     1  UNL1        0.0004
      2 C          -5.4260   -6.7920   -2.8020 C.2     1  UNL1        0.1506
      3 C          -5.8140   -7.1190    0.1980 C.3     1  UNL1        0.0009
      4 C          -4.4850   -7.6410   -1.8320 C.3     1  UNL1        0.0645
      5 C          -5.0470   -7.9770   -0.5450 C.3     1  UNL1        0.0078
      6 C          -6.6460   -6.7190   -2.3550 C.3     1  UNL1        0.0645
      7 O          -4.6890   -6.3220   -3.6130 O.2     1  UNL1       -0.2961
      8 C          -6.5690   -6.2820   -0.8390 C.3     1  UNL1        0.0073
@<TRIPOS>BOND
     1     2     6    1
     2     2     4    1
     3     4     5    1
     4     5     3    1
     5     6     8    1
     6     7     2    2
     7     8     1    1
     8     8     3    1
@<TRIPOS>MOLECULE
*****
 19 18 0 0 0
SMALL
GASTEIGER

@<TRIPOS>ATOM
      1 C           1.0310   -0.2670    1.4450 C.3     1  UNL1        0.0001
      2 O          -2.2570   -7.6200   -3.5340 O.3     1  UNL1       -0.3562
      3 C          -6.2520   -4.8470   -0.2710 C.3     1  UNL1        0.1759
      4 C          -2.2330   -0.6300    2.2120 C.3     1  UNL1        0.1423
      5 C           2.2860    0.5480    1.8250 C.3     1  UNL1        0.0000
      6 N          -4.1220   -6.7640   -2.3030 N.3     1  UNL1       -0.1806
      7 C           0.1770   -0.3670    2.7310 C.3     1  UNL1        0.0026
      8 C          -1.0680   -1.2590    2.7770 C.3     1  UNL1        0.0321
      9 O          -3.4000   -1.6640    2.2330 O.3     1  UNL1       -0.3511
     10 C          -3.6320   -5.8840   -3.2670 C.3     1  UNL1        0.1496
     11 P          -2.2260   -6.2840   -3.7050 P.3     1  UNL1        0.1348
     12 C          -5.7630   -2.3640    2.3370 C.3     1  UNL1        0.1742
     13 C          -5.3070   -6.5400   -1.7010 C.3     1  UNL1        0.2350
     14 O          -5.5560   -3.1740    1.2900 O.3     1  UNL1       -0.3484
     15 O          -1.1700   -5.6440   -3.1050 O.3     1  UNL1       -0.3562
     16 C          -6.1310   -4.4520    1.1990 C.3     1  UNL1        0.1743
     17 O          -5.2170   -5.5340   -0.6140 O.3     1  UNL1       -0.3337
     18 O          -2.0410   -5.0960   -5.1400 O.2     1  UNL1       -0.4587
     19 C          -4.7530   -1.2150    2.0170 C.3     1  UNL1        0.1741
@<TRIPOS>BOND
     1     1     5    1
     2     1     7    1
     3     3    16    1
     4     4     9    1
     5     4     8    1
     6     6    13    1
     7     7     8    1
     8    10     6    1
     9    11     2    1
    10    11    10    1
    11    11    15    1
    12    13    17    1
    13    14    12    1
    14    16    14    1
    15    17     3    1
    16    18    11    2
    17    19     9    1
    18    19    12    1
@<TRIPOS>MOLECULE
*****
 8 7 0 0 0
SMALL
GASTEIGER

@<TRIPOS>ATOM
      1 C          -2.0190   -2.8830    0.1130 C.2     1  UNL1        0.3862
      2 C          -3.2980   -4.4780   -0.6050 C.3     1  UNL1        0.1807
      3 O          -0.9190   -2.3380   -0.2330 O.co2   1  UNL1       -0.2408
      4 O          -1.8980   -2.8230    1.4830 O.co2   1  UNL1       -0.2408
      5 C          -2.5260   -3.9670   -0.9790 C.2     1  UNL1        0.0874
      6 C          -1.9970   -3.6080   -2.1950 C.2     1  UNL1        0.0047
      7 C          -2.6930   -5.5110   -1.7970 C.3     1  UNL1        0.0407
      8 O          -3.1100   -4.7730    0.5120 O.3     1  UNL1       -0.2181
@<TRIPOS>BOND
     1     1     4   ar
     2     2     7    1
     3     2     8    1
     4     3     1   ar
     5     5     2    1
     6     5     1    1
     7     6     5    2
@<TRIPOS>MOLECULE
*****
 6 5 0 0 0
SMALL
GASTEIGER

@<TRIPOS>ATOM
      1 O          -2.7940   -5.2530   -3.4870 O.3     1  UNL1       -0.2148
      2 C          -4.0050   -6.5740   -3.0830 C.2     1  UNL1        0.0635
      3 C          -4.7170   -5.8300   -2.4930 C.1     1  UNL1        0.1272
      4 C          -4.7230   -6.4280   -4.1480 C.3     1  UNL1        0.0407
      5 O          -5.2250   -5.3190   -1.5140 O.2     1  UNL1       -0.2317
      6 C          -2.9290   -6.8140   -2.8680 C.3     1  UNL1        0.2150
@<TRIPOS>BOND
     1     1     6    1
     2     2     6    1
     3     2     3    2
     4     3     5    2
     5     4     2    1
@<TRIPOS>MOLECULE
*****
 22 21 0 0 0
SMALL
GASTEIGER

@<TRIPOS>ATOM
      1 C          -5.0900   -1.5910    1.4740 C.3     1  UNL1        0.1449
      2 O          -0.4440   -5.4080   -3.2160 O.3     1  UNL1       -0.3241
      3 C          -3.9440   -1.7300    3.2490 C.3     1  UNL1        0.1741
      4 O           0.3450   -2.5800   -2.0170 O.3     1  UNL1       -0.3511
      5 O          -7.3270   -5.0470   -2.5840 O.3     1  UNL1       -0.2204
      6 C          -6.0910   -2.5440    1.6600 C.3     1  UNL1        0.0641
      7 C          -3.8500   -6.2620   -2.9280 C.3     1  UNL1        0.1477
      8 O          -3.8130   -1.6380    1.8690 O.3     1  UNL1       -0.3510
      9 C          -6.3580   -5.1840   -0.4710 C.3     1  UNL1        0.1749
     10 C          -6.1850   -5.6930   -1.8590 C.3     1  UNL1        0.1839
     11 O          -2.5870   -5.6560   -3.3420 O.3     1  UNL1       -0.3267
     12 C           0.9240   -3.3110   -3.1880 C.3     1  UNL1        0.1742
     13 O          -7.0260   -4.1240   -0.2860 O.3     1  UNL1       -0.3510
     14 C           0.6070   -0.4590   -0.7580 C.3     1  UNL1        0.0346
     15 C          -6.5190   -3.4380    0.8620 C.3     1  UNL1        0.1449
     16 C          -2.6970   -1.8140    4.0340 C.3     1  UNL1        0.1742
     17 C          -1.7660   -5.9400   -3.9520 C.3     1  UNL1        0.2941
     18 O          -1.5160   -1.0860    3.5840 O.3     1  UNL1       -0.3484
     19 C          -0.5530   -0.9380    4.6460 C.3     1  UNL1        0.1742
     20 C          -4.9520   -5.2500   -2.9020 C.3     1  UNL1        0.0676
     21 C           1.0900   -1.2810   -1.9510 C.3     1  UNL1        0.1424
     22 C          -0.2380   -4.0420   -3.8300 C.3     1  UNL1        0.1769
@<TRIPOS>BOND
     1     1     6    1
     2     1     8    1
     3     3    16    1
     4     4    21    1
     5     7    20    1
     6     8     3    1
     7     9    13    1
     8    10     5    1
     9    10     9    1
    10    11     7    1
    11    12     4    1
    12    13    15    1
    13    15     6    1
    14    17    11    1
    15    17     2    1
    16    18    16    1
    17    18    19    1
    18    20    10    1
    19    21    14    1
    20    22     2    1
    21    22    12    1
@<TRIPOS>MOLECULE
*****
 15 15 0 0 0
SMALL
GASTEIGER

@<TRIPOS>ATOM
      1 C          -0.2480   -3.5100   -5.3040 C.2     1  UNL1        0.4283
      2 N          -1.9850   -7.3080   -3.7930 N.2     1  UNL1       -0.0528
      3 O           0.3520   -2.5580   -4.7610 O.2     1  UNL1       -0.2241
      4 C          -2.3360   -6.0190   -4.0070 C.2     1  UNL1        0.4180
      5 C          -2.9530   -8.2530   -3.7900 C.3     1  UNL1        0.2895
      6 O          -0.2720   -5.2410   -3.1990 O.2     1  UNL1       -0.2595
      7 C          -1.2840   -2.5480   -7.9610 C.3     1  UNL1        0.0513
      8 C          -4.0940   -7.9160   -3.7830 C.2     1  UNL1        0.0534
      9 N          -3.4800   -5.6590   -4.2810 N.pl3   1  UNL1        0.0012
     10 N          -1.2790   -4.0850   -4.8980 N.am    1  UNL1       -0.0970
     11 C           0.1560   -2.6940   -7.5230 C.3     1  UNL1        0.2103
     12 O           0.4150   -3.8830   -6.4930 O.3     1  UNL1       -0.4332
     13 C          -4.3410   -6.6630   -4.1240 C.2     1  UNL1        0.2198
     14 C          -5.5650   -8.2110   -4.2500 C.3     1  UNL1        0.0347
     15 C          -1.2140   -5.0070   -3.9030 C.2     1  UNL1        0.3603
@<TRIPOS>BOND
     1     1    10   am
     2     1     3    2
     3     2     5    1
     4     4    15    1
     5     4     2    2
     6     5     8    1
     7     7    11    1
     8     9    13    1
     9     9     4    1
    10    10    15   am
    11    11    12    1
    12    12     1    1
    13    13     8    2
    14    14     8    1
    15    15     6    2
@<TRIPOS>MOLECULE
*****
 12 12 0 0 0
SMALL
GASTEIGER

@<TRIPOS>ATOM
      1 C          -6.5050   -4.9110   -1.4670 C.3     1  UNL1        0.4284
      2 C          -5.9750   -4.8920   -3.0390 C.3     1  UNL1        0.1298
      3 C          -5.0600   -6.1610   -3.2650 C.3     1  UNL1        0.1338
      4 C          -2.8730   -7.0720   -2.9820 C.3     1  UNL1        0.0458
      5 O          -3.2260   -5.6900   -5.8420 O.co2   1  UNL1       -0.2456
      6 C          -3.8940   -7.7920   -2.1150 C.3     1  UNL1        0.1427
      7 C          -3.6290   -6.1210   -3.6810 C.3     1  UNL1        0.1332
      8 O          -7.4970   -3.9320   -1.2480 O.2     1  UNL1       -0.2670
      9 C          -3.0430   -5.3170   -4.6840 C.2     1  UNL1        0.3668
     10 O          -2.4100   -4.3350   -4.7170 O.co2   1  UNL1       -0.2456
     11 O          -5.4840   -5.0080   -0.4820 O.2     1  UNL1       -0.2670
     12 O          -5.0750   -6.9110   -2.0930 O.3     1  UNL1       -0.3554
@<TRIPOS>BOND
     1     1     8    1
     2     1    11    1
     3     2     1    1
     4     3     2    1
     5     3    12    1
     6     4     6    1
     7     5     9   ar
     8     6    12    1
     9     7     9    1
    10     7     3    1
    11     7     4    1
    12    10     9   ar
@<TRIPOS>MOLECULE
*****
 8 8 0 0 0
SMALL
GASTEIGER

@<TRIPOS>ATOM
      1 O          -5.3710   -3.9700    2.5990 O.co2   1  UNL1       -0.2456
      2 C          -3.5340   -1.6010    2.9190 C.3     1  UNL1        0.1375
      3 O          -2.7110   -1.6190    1.8840 O.3     1  UNL1       -0.2251
      4 C          -2.7820   -2.1270    4.0020 C.3     1  UNL1        0.0335
      5 C          -5.4310   -3.0900    1.7640 C.2     1  UNL1        0.3668
      6 C          -4.6140   -1.8450    2.0310 C.3     1  UNL1        0.1337
      7 C          -4.6100   -0.7590    2.4440 C.3     1  UNL1        0.0447
      8 O          -6.3470   -2.9560    0.9920 O.co2   1  UNL1       -0.2456
@<TRIPOS>BOND
     1     2     4    1
     2     3     2    1
     3     5     1   ar
     4     6     5    1
     5     6     7    1
     6     6     2    1
     7     7     2    1
     8     8     5   ar
@<TRIPOS>MOLECULE
*****
 14 13 0 0 0
SMALL
GASTEIGER

@<TRIPOS>ATOM
      1 C          -2.0320   -5.7980   -4.0320 C.3     1  UNL1        0.2940
      2 C          -4.3420   -6.3780   -3.0250 C.3     1  UNL1        0.1450
      3 C           0.0580   -2.8890   -3.3730 C.3     1  UNL1        0.1048
      4 O          -5.4900   -4.2270    0.3570 O.3     1  UNL1       -0.2204
      5 C          -6.5920   -5.4100    0.0020 C.3     1  UNL1        0.1822
      6 C           0.8140   -0.6060   -2.3660 C.2     1  UNL1        0.2715
      7 C           0.5530   -1.3540   -3.6170 C.2     1  UNL1        0.2175
      8 C          -5.5280   -6.2770   -0.9590 C.3     1  UNL1        0.0381
      9 C          -5.3810   -5.5510   -2.3820 C.3     1  UNL1        0.0349
     10 C          -0.2060   -4.2000   -3.8320 C.3     1  UNL1        0.1532
     11 O          -3.2450   -5.6950   -3.2520 O.3     1  UNL1       -0.3268
     12 O           0.6330   -0.2980   -4.4640 O.2     1  UNL1       -0.2877
     13 O           1.2330    0.7190   -2.4130 O.2     1  UNL1       -0.2799
     14 O          -1.6440   -4.4410   -3.9770 O.3     1  UNL1       -0.3263
@<TRIPOS>BOND
     1     1    14    1
     2     1    11    1
     3     2     9    1
     4     5     4    1
     5     7     3    1
     6     7     6    2
     7     8     5    1
     8     9     8    1
     9    10     3    1
    10    11     2    1
    11    12     7    1
    12    13     6    1
    13    14    10    1
@<TRIPOS>MOLECULE
*****
 5 4 0 0 0
SMALL
GASTEIGER

@<TRIPOS>ATOM
      1 O          -5.8620   -4.0830   -4.3020 O.co2   1  UNL1       -0.2442
      2 C          -4.9300   -5.0040   -5.0680 C.2     1  UNL1        0.3811
      3 C          -4.7140   -5.3710   -6.3500 C.3     1  UNL1        0.2083
      4 O          -3.5350   -4.9670   -4.3780 O.co2   1  UNL1       -0.2442
      5 CL         -6.2990   -6.1560   -6.8540 Cl      1  UNL1       -0.1009
@<TRIPOS>BOND
     1     2     4   ar
     2     2     1   ar
     3     3     2    1
     4     5     3    1
@<TRIPOS>MOLECULE
*****
 11 10 0 0 0
SMALL
GASTEIGER

@<TRIPOS>ATOM
      1 N          -6.3750   -4.1410   -0.4660 N.am    1  UNL1       -0.1847
      2 O          -5.4940   -6.7930    0.3770 O.co2   1  UNL1       -0.2431
      3 C          -6.1070   -5.8680    1.1010 C.2     1  UNL1        0.3954
      4 CA         -5.8390   -4.5150    0.8440 C.3     1  UNL1        0.3003
      5 C          -8.0440   -5.9350   -0.4950 C.3     1  UNL1        0.0965
      6 O          -4.4530   -2.9960    2.0470 O.co2   1  UNL1       -0.2431
      7 C          -5.6220   -3.1800    1.5310 C.2     1  UNL1        0.3954
      8 O          -6.9540   -6.1930    1.8790 O.co2   1  UNL1       -0.2431
      9 O          -8.1560   -3.9680   -1.8060 O.2     1  UNL1       -0.2733
     10 OXT        -6.5060   -2.3090    1.4070 O.co2   1  UNL1       -0.2431
     11 C          -7.5100   -4.6950   -0.9100 C.2     1  UNL1        0.2428
@<TRIPOS>BOND
     1     1     4    1
     2     2     3   ar
     3     3     8   ar
     4     4     3    1
     5     4     7    1
     6     7     6   ar
     7     9    11    2
     8    10     7   ar
     9    11     5    1
    10    11     1   am
@<TRIPOS>MOLECULE
*****
 10 9 0 0 0
SMALL
GASTEIGER

@<TRIPOS>ATOM
      1 O          -4.6100   -5.1780   -1.4560 O.3     1  UNL1       -0.2150
      2 C          -5.8590   -5.4530   -1.2800 C.3     1  UNL1        0.2120
      3 C          -6.5710   -4.6270   -3.2060 C.3     1  UNL1        0.0058
      4 C          -7.5240   -6.5980    0.1010 C.3     1  UNL1        0.1355
      5 S          -7.8300   -7.8610    1.3120 S.3     1  UNL1       -0.0737
      6 O          -8.3210   -3.4010   -2.1470 O.3     1  UNL1       -0.2203
      7 C          -7.8800   -4.3650   -1.4960 C.3     1  UNL1        0.1850
      8 O          -5.8130   -4.9670    0.9010 O.2     1  UNL1       -0.2924
      9 C          -6.7630   -5.3320   -2.3720 C.3     1  UNL1        0.0707
     10 C          -6.3160   -5.7630    0.0410 C.2     1  UNL1        0.1925
@<TRIPOS>BOND
     1     2     1    1
     2     2    10    1
     3     4     5    1
     4     6     7    1
     5     9     3    1
     6     9     7    1
     7     9     2    1
     8    10     4    1
     9    10     8    2
@<TRIPOS>MOLECULE
*****
 8 7 0 0 0
SMALL
GASTEIGER

@<TRIPOS>ATOM
      1 N          -0.9410   -3.5500   -2.5950 N.3     1  UNL1       -0.0476
      2 C          -1.7740   -3.8030   -4.8920 C.3     1  UNL1        0.0861
      3 O          -4.0540   -4.5970   -4.3530 O.3     1  UNL1       -0.2203
      4 C          -1.1780   -3.7340   -4.0010 C.3     1  UNL1        0.1298
      5 C          -0.8960   -5.0270   -5.1660 C.3     1  UNL1        0.1862
      6 O          -1.2480   -5.9880   -4.1990 O.3     1  UNL1       -0.2203
      7 O          -0.3800   -4.7150   -2.1600 O.3     1  UNL1       -0.1001
      8 C          -3.4440   -3.6070   -5.2010 C.3     1  UNL1        0.1862
@<TRIPOS>BOND
     1     1     7    1
     2     2     4    1
     3     4     1    1
     4     5     2    1
     5     5     6    1
     6     8     2    1
     7     8     3    1
@<TRIPOS>MOLECULE
*****
 15 15 0 0 0
SMALL
GASTEIGER

@<TRIPOS>ATOM
      1 O          -7.2550   -5.6750   -3.1340 O.2     1  UNL1       -0.4696
      2 C          -9.7370   -5.4600   -4.7650 C.3     1  UNL1        0.0480
      3 C          -5.4660   -5.8150    0.3300 C.3     1  UNL1        0.2186
      4 C          -5.1270   -6.2110   -1.8750 C.3     1  UNL1        0.2270
      5 C          -6.2440   -5.0820   -1.8980 C.3     1  UNL1        0.2315
      6 C          -5.4200   -6.9210   -0.5730 C.3     1  UNL1        0.2186
      7 C          -6.2850   -4.7410   -0.3370 C.3     1  UNL1        0.2270
      8 O          -5.6810   -5.8190    1.6090 O.3     1  UNL1       -0.2174
      9 O          -7.3410   -5.3350   -0.2790 O.3     1  UNL1       -0.2163
     10 C          -9.0620   -5.2250   -3.9460 C.2     1  UNL1        0.1036
     11 N          -9.2370   -4.3670   -2.7350 N.pl3   1  UNL1       -0.1295
     12 O          -6.4620   -7.9190   -0.8020 O.3     1  UNL1       -0.2174
     13 C          -7.4830   -5.8050   -3.6400 C.2     1  UNL1        0.1858
     14 C         -10.7090   -6.0190   -5.6580 C.3     1  UNL1        0.0066
     15 O          -3.9780   -5.4500   -2.2330 O.3     1  UNL1       -0.2163
@<TRIPOS>BOND
     1     2    10    1
     2     3     8    1
     3     4    15    1
     4     4     6    1
     5     5     1    1
     6     5     4    1
     7     5     7    1
     8     6    12    1
     9     6     3    1
    10     7     9    1
    11     7     3    1
    12    10    13    2
    13    10    11    1
    14    13     1    1
    15    14     2    1
@<TRIPOS>MOLECULE
*****
 11 10 0 0 0
SMALL
GASTEIGER

@<TRIPOS>ATOM
      1 O          -3.0700   -4.0130   -5.6430 O.co2   1  UNL1       -0.2457
      2 O          -8.4400   -4.4310   -1.6250 O.3     1  UNL1       -0.2231
      3 C          -6.1710   -4.9590   -1.2380 C.3     1  UNL1        0.0329
      4 C          -4.3350   -5.0410   -2.8290 C.3     1  UNL1        0.0007
      5 C          -2.4750   -5.7960   -4.1670 C.3     1  UNL1        0.1141
      6 C          -7.6300   -5.4040   -1.1370 C.3     1  UNL1        0.1521
      7 C          -2.0790   -4.7140   -5.1510 C.2     1  UNL1        0.3649
      8 C          -7.8500   -5.6670    0.4160 C.3     1  UNL1        0.0355
      9 C          -3.9800   -5.7430   -4.1090 C.3     1  UNL1        0.0118
     10 C          -5.7880   -4.9090   -2.5570 C.3     1  UNL1        0.0026
     11 O          -0.9660   -4.7020   -5.6300 O.co2   1  UNL1       -0.2457
@<TRIPOS>BOND
     1     1     7   ar
     2     2     6    1
     3     3     6    1
     4     4    10    1
     5     5     9    1
     6     6     8    1
     7     7     5    1
     8     9     4    1
     9    10     3    1
    10    11     7   ar
@<TRIPOS>MOLECULE
*****
 10 10 0 0 0
SMALL
GASTEIGER

@<TRIPOS>ATOM
      1 O          -0.6900   -1.1420   -4.2820 O.3     1  UNL1       -0.2205
      2 C          -0.9740   -3.3220   -5.0830 C.3     1  UNL1        0.1589
      3 C           0.3080   -1.6300   -6.3670 C.3     1  UNL1        0.0382
      4 C           0.1290   -4.6140   -3.3790 C.3     1  UNL1        0.2948
      5 O          -0.4890   -5.8470   -3.7400 O.3     1  UNL1       -0.3146
      6 C          -1.8420   -5.9170   -4.5210 C.3     1  UNL1        0.2028
      7 S          -1.6720   -5.7560   -6.1220 S.3     1  UNL1       -0.1059
      8 C          -0.0650   -2.1200   -4.9830 C.3     1  UNL1        0.1799
      9 C          -0.8040   -4.1080   -6.2890 C.3     1  UNL1        0.0921
     10 O          -0.8580   -3.6050   -3.5180 O.3     1  UNL1       -0.3257
@<TRIPOS>BOND
     1     2     8    1
     2     2    10    1
     3     5     4    1
     4     6     5    1
     5     7     6    1
     6     8     3    1
     7     8     1    1
     8     9     7    1
     9     9     2    1
    10    10     4    1
