
 OpenBabel07072517583D

 38 39  0  0  0  0  0  0  0  0999 V2000
    9.8394    3.8658   -3.8397 O   0  0  0  0  0  0  0  0  0  0  0  0
    9.3333    2.9640   -3.1976 C   0  0  0  0  0  0  0  0  0  0  0  0
    9.9862    2.2930   -2.2264 O   0  0  0  0  0  0  0  0  0  0  0  0
    7.9283    2.5254   -3.3977 C   0  0  0  0  0  0  0  0  0  0  0  0
    6.9915    3.4771   -3.8307 C   0  0  0  0  0  0  0  0  0  0  0  0
    5.6581    3.1170   -4.0667 C   0  0  0  0  0  0  0  0  0  0  0  0
    5.2823    1.7863   -3.8631 C   0  0  0  0  0  0  0  0  0  0  0  0
    6.2098    0.8310   -3.4448 C   0  0  0  0  0  0  0  0  0  0  0  0
    7.5379    1.1932   -3.2194 C   0  0  0  0  0  0  0  0  0  0  0  0
    4.0253    1.3703   -4.0693 F   0  0  0  0  0  0  0  0  0  0  0  0
    4.8584    4.1481   -4.4826 O   0  0  0  0  0  0  0  0  0  0  0  0
    3.4974    3.8384   -4.7898 C   0  0  0  0  0  0  0  0  0  0  0  0
    2.7644    5.1124   -5.2107 C   0  0  0  0  0  0  0  0  0  0  0  0
    3.3665    5.7502   -6.4664 C   0  0  0  0  0  0  0  0  0  0  0  0
    2.6292    6.9739   -6.9157 C   0  0  0  0  0  0  0  0  0  0  0  0
    2.4895    8.1842   -6.2564 C   0  0  0  0  0  0  0  0  0  0  0  0
    2.9787    8.6856   -4.9517 C   0  0  0  0  0  0  0  0  0  0  0  0
    1.7456    8.9796   -7.0818 N   0  0  0  0  0  0  0  0  0  0  0  0
    1.4009    8.3919   -8.2324 N   0  0  0  0  0  0  0  0  0  0  0  0
    1.9437    7.1729   -8.1528 C   0  0  0  0  0  0  0  0  0  0  0  0
    1.7990    6.2293   -9.2895 C   0  0  0  0  0  0  0  0  0  0  0  0
    9.4336    1.7248   -1.6603 H   0  0  0  0  0  0  0  0  0  0  0  0
    7.3042    4.5079   -3.9946 H   0  0  0  0  0  0  0  0  0  0  0  0
    5.8863   -0.1978   -3.3135 H   0  0  0  0  0  0  0  0  0  0  0  0
    8.2527    0.4222   -2.9431 H   0  0  0  0  0  0  0  0  0  0  0  0
    2.9990    3.4432   -3.8969 H   0  0  0  0  0  0  0  0  0  0  0  0
    3.4496    3.1056   -5.6038 H   0  0  0  0  0  0  0  0  0  0  0  0
    2.8037    5.8247   -4.3789 H   0  0  0  0  0  0  0  0  0  0  0  0
    1.7064    4.8782   -5.3808 H   0  0  0  0  0  0  0  0  0  0  0  0
    3.3697    5.0073   -7.2734 H   0  0  0  0  0  0  0  0  0  0  0  0
    4.4147    6.0213   -6.2903 H   0  0  0  0  0  0  0  0  0  0  0  0
    3.5841    7.9397   -4.4297 H   0  0  0  0  0  0  0  0  0  0  0  0
    2.1364    8.9526   -4.3047 H   0  0  0  0  0  0  0  0  0  0  0  0
    3.6012    9.5752   -5.0924 H   0  0  0  0  0  0  0  0  0  0  0  0
    1.4467    9.9361   -6.9253 H   0  0  0  0  0  0  0  0  0  0  0  0
    1.2333    6.6763  -10.1146 H   0  0  0  0  0  0  0  0  0  0  0  0
    1.2734    5.3236   -8.9715 H   0  0  0  0  0  0  0  0  0  0  0  0
    2.7834    5.9445   -9.6754 H   0  0  0  0  0  0  0  0  0  0  0  0
  1  2  2  0  0  0  0
  2  3  1  0  0  0  0
  2  4  1  0  0  0  0
  3 22  1  0  0  0  0
  4  5  1  0  0  0  0
  4  9  2  0  0  0  0
  5  6  2  0  0  0  0
  5 23  1  0  0  0  0
  6  7  1  0  0  0  0
  6 11  1  0  0  0  0
  7  8  2  0  0  0  0
  7 10  1  0  0  0  0
  8  9  1  0  0  0  0
  8 24  1  0  0  0  0
  9 25  1  0  0  0  0
 11 12  1  0  0  0  0
 12 13  1  0  0  0  0
 12 26  1  0  0  0  0
 12 27  1  0  0  0  0
 13 14  1  0  0  0  0
 13 28  1  0  0  0  0
 13 29  1  0  0  0  0
 14 15  1  0  0  0  0
 14 30  1  0  0  0  0
 14 31  1  0  0  0  0
 15 16  2  0  0  0  0
 15 20  1  0  0  0  0
 16 17  1  0  0  0  0
 16 18  1  0  0  0  0
 17 32  1  0  0  0  0
 17 33  1  0  0  0  0
 17 34  1  0  0  0  0
 18 19  1  0  0  0  0
 18 35  1  0  0  0  0
 19 20  2  0  0  0  0
 20 21  1  0  0  0  0
 21 36  1  0  0  0  0
 21 37  1  0  0  0  0
 21 38  1  0  0  0  0
M  END
$$$$
