@<TRIPOS>MOLECULE
*****
 38 39 0 0 0
SMALL
GASTEIGER

@<TRIPOS>ATOM
      1 O           3.7340   -2.8500    0.0060 O.2     1  UNL1       -0.2451
      2 C           4.4730   -1.8870    0.0070 C.2     1  UNL1        0.3369
      3 O           5.8090   -2.0630    0.0070 O.3     1  UNL1       -0.4771
      4 C           3.9090   -0.5230    0.0010 C.ar    1  UNL1        0.0625
      5 C           2.5250   -0.3370    0.0000 C.ar    1  UNL1       -0.0031
      6 C           4.7580    0.5870    0.0020 C.ar    1  UNL1       -0.0448
      7 C           4.2280    1.8600   -0.0040 C.ar    1  UNL1       -0.0220
      8 C           2.8550    2.0420   -0.0100 C.ar    1  UNL1        0.1648
      9 F           2.3420    3.2920   -0.0160 F       1  UNL1       -0.2017
     10 C           2.0030    0.9430    0.0000 C.ar    1  UNL1        0.1563
     11 O           0.6560    1.1280   -0.0060 O.3     1  UNL1       -0.4891
     12 C          -0.1600   -0.0460    0.0060 C.3     1  UNL1        0.0900
     13 C          -1.6350    0.3590   -0.0030 C.3     1  UNL1       -0.0145
     14 C          -2.5090   -0.8970    0.0090 C.3     1  UNL1       -0.0212
     15 C          -3.9620   -0.4990    0.0000 C.ar    1  UNL1       -0.0042
     16 C          -4.7270   -0.3020   -1.0990 C.ar    1  UNL1        0.0364
     17 C          -4.2780   -0.4420   -2.5300 C.3     1  UNL1       -0.0226
     18 N          -5.9640    0.0420   -0.6830 N.ar    1  UNL1       -0.2813
     19 N          -5.9590    0.0570    0.7180 N.ar    1  UNL1       -0.1787
     20 C          -4.7610   -0.2740    1.1260 C.ar    1  UNL1        0.0631
     21 C          -4.3150   -0.3820    2.5620 C.3     1  UNL1       -0.0204
     22 H           6.1320   -2.9750    0.0070 H       1  UNL1        0.2954
     23 H           1.8640   -1.1920   -0.0010 H       1  UNL1        0.0663
     24 H           5.8290    0.4470    0.0070 H       1  UNL1        0.0627
     25 H           4.8860    2.7170   -0.0030 H       1  UNL1        0.0648
     26 H           0.0570   -0.6480   -0.8760 H       1  UNL1        0.0696
     27 H           0.0520   -0.6260    0.9040 H       1  UNL1        0.0696
     28 H          -1.8530    0.9610    0.8790 H       1  UNL1        0.0301
     29 H          -1.8470    0.9400   -0.9010 H       1  UNL1        0.0301
     30 H          -2.2920   -1.5000   -0.8730 H       1  UNL1        0.0315
     31 H          -2.2970   -1.4780    0.9070 H       1  UNL1        0.0315
     32 H          -4.4410   -1.4670   -2.8640 H       1  UNL1        0.0292
     33 H          -4.8490    0.2410   -3.1590 H       1  UNL1        0.0292
     34 H          -3.2170   -0.2010   -2.6030 H       1  UNL1        0.0292
     35 H          -6.7220    0.2440   -1.2530 H       1  UNL1        0.1885
     36 H          -4.4840   -1.3980    2.9190 H       1  UNL1        0.0293
     37 H          -3.2530   -0.1450    2.6320 H       1  UNL1        0.0293
     38 H          -4.8850    0.3180    3.1730 H       1  UNL1        0.0293
@<TRIPOS>BOND
     1     1     2    2
     2     2     3    1
     3     2     4    1
     4     3    22    1
     5     4     6   ar
     6     4     5   ar
     7     5    23    1
     8     5    10   ar
     9     6    24    1
    10     6     7   ar
    11     7    25    1
    12     7     8   ar
    13     8     9    1
    14     8    10   ar
    15    10    11    1
    16    11    12    1
    17    12    26    1
    18    12    27    1
    19    12    13    1
    20    13    28    1
    21    13    29    1
    22    13    14    1
    23    14    30    1
    24    14    31    1
    25    14    15    1
    26    15    16   ar
    27    15    20   ar
    28    16    17    1
    29    16    18   ar
    30    17    32    1
    31    17    33    1
    32    17    34    1
    33    18    35    1
    34    18    19   ar
    35    19    20   ar
    36    20    21    1
    37    21    36    1
    38    21    37    1
    39    21    38    1
