@<TRIPOS>MOLECULE
*****
 38 39 0 0 0
SMALL
GASTEIGER

@<TRIPOS>ATOM
      1 O           9.8394    3.8658   -3.8397 O.2     1  UNL1       -0.2451
      2 C           9.3333    2.9640   -3.1976 C.2     1  UNL1        0.3369
      3 O           9.9862    2.2930   -2.2264 O.3     1  UNL1       -0.4771
      4 C           7.9283    2.5254   -3.3977 C.ar    1  UNL1        0.0625
      5 C           6.9915    3.4771   -3.8307 C.ar    1  UNL1       -0.0031
      6 C           5.6581    3.1170   -4.0667 C.ar    1  UNL1        0.1563
      7 C           5.2823    1.7863   -3.8631 C.ar    1  UNL1        0.1648
      8 C           6.2098    0.8310   -3.4448 C.ar    1  UNL1       -0.0220
      9 C           7.5379    1.1932   -3.2194 C.ar    1  UNL1       -0.0448
     10 F           4.0253    1.3703   -4.0693 F       1  UNL1       -0.2017
     11 O           4.8584    4.1481   -4.4826 O.3     1  UNL1       -0.4891
     12 C           3.4974    3.8384   -4.7898 C.3     1  UNL1        0.0900
     13 C           2.7644    5.1124   -5.2107 C.3     1  UNL1       -0.0145
     14 C           3.3665    5.7502   -6.4664 C.3     1  UNL1       -0.0212
     15 C           2.6292    6.9739   -6.9157 C.ar    1  UNL1       -0.0042
     16 C           2.4895    8.1842   -6.2564 C.ar    1  UNL1        0.0364
     17 C           2.9787    8.6856   -4.9517 C.3     1  UNL1       -0.0226
     18 N           1.7456    8.9796   -7.0818 N.ar    1  UNL1       -0.2813
     19 N           1.4009    8.3919   -8.2324 N.ar    1  UNL1       -0.1787
     20 C           1.9437    7.1729   -8.1528 C.ar    1  UNL1        0.0631
     21 C           1.7990    6.2293   -9.2895 C.3     1  UNL1       -0.0204
     22 H           9.4336    1.7248   -1.6603 H       1  UNL1        0.2954
     23 H           7.3042    4.5079   -3.9946 H       1  UNL1        0.0663
     24 H           5.8863   -0.1978   -3.3135 H       1  UNL1        0.0648
     25 H           8.2527    0.4222   -2.9431 H       1  UNL1        0.0627
     26 H           2.9990    3.4432   -3.8969 H       1  UNL1        0.0696
     27 H           3.4496    3.1056   -5.6038 H       1  UNL1        0.0696
     28 H           2.8037    5.8247   -4.3789 H       1  UNL1        0.0301
     29 H           1.7064    4.8782   -5.3808 H       1  UNL1        0.0301
     30 H           3.3697    5.0073   -7.2734 H       1  UNL1        0.0315
     31 H           4.4147    6.0213   -6.2903 H       1  UNL1        0.0315
     32 H           3.5841    7.9397   -4.4297 H       1  UNL1        0.0292
     33 H           2.1364    8.9526   -4.3047 H       1  UNL1        0.0292
     34 H           3.6012    9.5752   -5.0924 H       1  UNL1        0.0292
     35 H           1.4467    9.9361   -6.9253 H       1  UNL1        0.1885
     36 H           1.2333    6.6763  -10.1146 H       1  UNL1        0.0293
     37 H           1.2734    5.3236   -8.9715 H       1  UNL1        0.0293
     38 H           2.7834    5.9445   -9.6754 H       1  UNL1        0.0293
@<TRIPOS>BOND
     1     1     2    2
     2     2     3    1
     3     2     4    1
     4     3    22    1
     5     4     5   ar
     6     4     9   ar
     7     5     6   ar
     8     5    23    1
     9     6     7   ar
    10     6    11    1
    11     7     8   ar
    12     7    10    1
    13     8     9   ar
    14     8    24    1
    15     9    25    1
    16    11    12    1
    17    12    13    1
    18    12    26    1
    19    12    27    1
    20    13    14    1
    21    13    28    1
    22    13    29    1
    23    14    15    1
    24    14    30    1
    25    14    31    1
    26    15    16   ar
    27    15    20   ar
    28    16    17    1
    29    16    18   ar
    30    17    32    1
    31    17    33    1
    32    17    34    1
    33    18    19   ar
    34    18    35    1
    35    19    20   ar
    36    20    21    1
    37    21    36    1
    38    21    37    1
    39    21    38    1
