@<TRIPOS>MOLECULE
*****
 26 27 0 0 0
SMALL
GASTEIGER

@<TRIPOS>ATOM
      1 F           0.1338   -2.9308   -1.1289 F       1  UNL1       -0.2048
      2 C           0.0979   -1.6959   -0.6045 C.ar    1  UNL1        0.1338
      3 C           1.2506   -1.1317   -0.0183 C.ar    1  UNL1        0.0175
      4 C           2.5451   -1.8626    0.0551 C.ar    1  UNL1       -0.0141
      5 C           3.4354   -1.6677    1.1313 C.ar    1  UNL1       -0.0364
      6 C           4.6393   -2.3937    1.2323 C.ar    1  UNL1        0.1007
      7 C           4.9668   -3.3357    0.2594 C.ar    1  UNL1        0.1309
      8 O           6.0882   -4.1010    0.3884 O.3     1  UNL1       -0.5059
      9 C           4.1252   -3.5227   -0.8295 C.ar    1  UNL1       -0.0188
     10 C           2.9370   -2.7836   -0.9318 C.ar    1  UNL1       -0.0505
     11 C           5.5629   -2.0974    2.3569 C.2     1  UNL1        0.3404
     12 O           6.7455   -1.8460    2.2198 O.2     1  UNL1       -0.2450
     13 O           4.9269   -2.0664    3.5500 O.3     1  UNL1       -0.4770
     14 C           1.1050    0.1613    0.5311 C.ar    1  UNL1       -0.0486
     15 C          -0.1238    0.8312    0.5099 C.ar    1  UNL1       -0.0257
     16 C          -1.2258    0.2297   -0.0794 C.ar    1  UNL1        0.1262
     17 F          -2.4000    0.8723   -0.0972 F       1  UNL1       -0.2054
     18 C          -1.1254   -1.0286   -0.6470 C.ar    1  UNL1        0.0094
     19 H           3.2067   -0.9393    1.9041 H       1  UNL1        0.0633
     20 H           6.2003   -4.6613   -0.3951 H       1  UNL1        0.2922
     21 H           4.3637   -4.2413   -1.6090 H       1  UNL1        0.0654
     22 H           2.3145   -2.9536   -1.8093 H       1  UNL1        0.0625
     23 H           4.0170   -2.4181    3.5302 H       1  UNL1        0.2954
     24 H           1.9516    0.6768    0.9810 H       1  UNL1        0.0625
     25 H          -0.2233    1.8193    0.9505 H       1  UNL1        0.0646
     26 H          -1.9882   -1.4949   -1.1075 H       1  UNL1        0.0675
@<TRIPOS>BOND
     1     1     2    1
     2     2     3   ar
     3     2    18   ar
     4     3     4    1
     5     3    14   ar
     6     4     5   ar
     7     4    10   ar
     8     5     6   ar
     9     5    19    1
    10     6     7   ar
    11     6    11    1
    12     7     8    1
    13     7     9   ar
    14     8    20    1
    15     9    10   ar
    16     9    21    1
    17    10    22    1
    18    11    12    2
    19    11    13    1
    20    13    23    1
    21    14    15   ar
    22    14    24    1
    23    15    16   ar
    24    15    25    1
    25    16    17    1
    26    16    18   ar
    27    18    26    1
