@<TRIPOS>MOLECULE
3059
 26 27 0 0 0
SMALL
GASTEIGER

@<TRIPOS>ATOM
      1 F          -1.4539    0.5010   -2.1801 F       1  UNL1       -0.2048
      2 F          -5.4044   -0.6384    0.1568 F       1  UNL1       -0.2054
      3 O           4.1226    1.3300    0.2247 O.3     1  UNL1       -0.5059
      4 O           2.8226   -2.5466    0.3592 O.3     1  UNL1       -0.4770
      5 O           4.4152   -1.2710   -0.6421 O.2     1  UNL1       -0.2450
      6 C           0.0587    0.4773    0.1874 C.ar    1  UNL1       -0.0141
      7 C          -1.3588    0.1880    0.1756 C.ar    1  UNL1        0.0175
      8 C           0.9831   -0.5552    0.0292 C.ar    1  UNL1       -0.0364
      9 C           0.5008    1.7893    0.3572 C.ar    1  UNL1       -0.0505
     10 C           2.3497   -0.2756    0.0409 C.ar    1  UNL1        0.1007
     11 C          -2.0693    0.2103   -1.0246 C.ar    1  UNL1        0.1338
     12 C          -2.0148   -0.1137    1.3691 C.ar    1  UNL1       -0.0486
     13 C           2.7917    1.0363    0.2106 C.ar    1  UNL1        0.1309
     14 C           1.8673    2.0688    0.3687 C.ar    1  UNL1       -0.0188
     15 C          -3.4358   -0.0690   -1.0312 C.ar    1  UNL1        0.0094
     16 C          -3.3813   -0.3929    1.3623 C.ar    1  UNL1       -0.0257
     17 C          -4.0919   -0.3705    0.1622 C.ar    1  UNL1        0.1262
     18 C           3.2985   -1.3679   -0.1258 C.2     1  UNL1        0.3404
     19 H           0.6235   -1.5721   -0.1157 H       1  UNL1        0.0633
     20 H          -0.2064    2.6060    0.4818 H       1  UNL1        0.0625
     21 H          -1.4762   -0.1355    2.3135 H       1  UNL1        0.0625
     22 H           2.1975    3.0956    0.5018 H       1  UNL1        0.0654
     23 H          -3.9893   -0.0511   -1.9653 H       1  UNL1        0.0675
     24 H          -3.8926   -0.6277    2.2913 H       1  UNL1        0.0646
     25 H           4.2354    2.2876    0.3526 H       1  UNL1        0.2922
     26 H           3.4678   -3.2763    0.2430 H       1  UNL1        0.2954
@<TRIPOS>BOND
     1     1    11    1
     2     2    17    1
     3     3    13    1
     4     3    25    1
     5     4    18    1
     6     4    26    1
     7     5    18    2
     8     6     7    1
     9     6     8   ar
    10     6     9   ar
    11     7    11   ar
    12     7    12   ar
    13     8    10   ar
    14     8    19    1
    15     9    14   ar
    16     9    20    1
    17    10    13   ar
    18    10    18    1
    19    11    15   ar
    20    12    16   ar
    21    12    21    1
    22    13    14   ar
    23    14    22    1
    24    15    17   ar
    25    15    23    1
    26    16    17   ar
    27    16    24    1
