
 OpenBabel07072517583D

 26 27  0  0  0  0  0  0  0  0999 V2000
    0.1338   -2.9308   -1.1289 F   0  0  0  0  0  0  0  0  0  0  0  0
    0.0979   -1.6959   -0.6045 C   0  0  0  0  0  0  0  0  0  0  0  0
    1.2506   -1.1317   -0.0183 C   0  0  0  0  0  0  0  0  0  0  0  0
    2.5451   -1.8626    0.0551 C   0  0  0  0  0  0  0  0  0  0  0  0
    3.4354   -1.6677    1.1313 C   0  0  0  0  0  0  0  0  0  0  0  0
    4.6393   -2.3937    1.2323 C   0  0  0  0  0  0  0  0  0  0  0  0
    4.9668   -3.3357    0.2594 C   0  0  0  0  0  0  0  0  0  0  0  0
    6.0882   -4.1010    0.3884 O   0  0  0  0  0  0  0  0  0  0  0  0
    4.1252   -3.5227   -0.8295 C   0  0  0  0  0  0  0  0  0  0  0  0
    2.9370   -2.7836   -0.9318 C   0  0  0  0  0  0  0  0  0  0  0  0
    5.5629   -2.0974    2.3569 C   0  0  0  0  0  0  0  0  0  0  0  0
    6.7455   -1.8460    2.2198 O   0  0  0  0  0  0  0  0  0  0  0  0
    4.9269   -2.0664    3.5500 O   0  0  0  0  0  0  0  0  0  0  0  0
    1.1050    0.1613    0.5311 C   0  0  0  0  0  0  0  0  0  0  0  0
   -0.1238    0.8312    0.5099 C   0  0  0  0  0  0  0  0  0  0  0  0
   -1.2258    0.2297   -0.0794 C   0  0  0  0  0  0  0  0  0  0  0  0
   -2.4000    0.8723   -0.0972 F   0  0  0  0  0  0  0  0  0  0  0  0
   -1.1254   -1.0286   -0.6470 C   0  0  0  0  0  0  0  0  0  0  0  0
    3.2067   -0.9393    1.9041 H   0  0  0  0  0  0  0  0  0  0  0  0
    6.2003   -4.6613   -0.3951 H   0  0  0  0  0  0  0  0  0  0  0  0
    4.3637   -4.2413   -1.6090 H   0  0  0  0  0  0  0  0  0  0  0  0
    2.3145   -2.9536   -1.8093 H   0  0  0  0  0  0  0  0  0  0  0  0
    4.0170   -2.4181    3.5302 H   0  0  0  0  0  0  0  0  0  0  0  0
    1.9516    0.6768    0.9810 H   0  0  0  0  0  0  0  0  0  0  0  0
   -0.2233    1.8193    0.9505 H   0  0  0  0  0  0  0  0  0  0  0  0
   -1.9882   -1.4949   -1.1075 H   0  0  0  0  0  0  0  0  0  0  0  0
  1  2  1  0  0  0  0
  2  3  1  0  0  0  0
  2 18  2  0  0  0  0
  3  4  1  0  0  0  0
  3 14  2  0  0  0  0
  4  5  1  0  0  0  0
  4 10  2  0  0  0  0
  5  6  2  0  0  0  0
  5 19  1  0  0  0  0
  6  7  1  0  0  0  0
  6 11  1  0  0  0  0
  7  8  1  0  0  0  0
  7  9  2  0  0  0  0
  8 20  1  0  0  0  0
  9 10  1  0  0  0  0
  9 21  1  0  0  0  0
 10 22  1  0  0  0  0
 11 12  2  0  0  0  0
 11 13  1  0  0  0  0
 13 23  1  0  0  0  0
 14 15  1  0  0  0  0
 14 24  1  0  0  0  0
 15 16  2  0  0  0  0
 15 25  1  0  0  0  0
 16 17  1  0  0  0  0
 16 18  1  0  0  0  0
 18 26  1  0  0  0  0
M  END
$$$$
