
 OpenBabel07072517583D

 27 29  0  0  0  0  0  0  0  0999 V2000
    2.7154   -0.0819    1.3370 O   0  0  0  0  0  0  0  0  0  0  0  0
    2.6069    0.0393   -0.0022 C   0  0  0  0  0  0  0  0  0  0  0  0
    1.9652    0.9241   -0.5387 O   0  0  0  0  0  0  0  0  0  0  0  0
    3.3099   -1.0181   -0.7742 C   0  0  0  0  0  0  0  0  0  0  0  0
    2.8046   -1.3545   -2.0451 C   0  0  0  0  0  0  0  0  0  0  0  0
    3.4231   -2.3310   -2.8468 C   0  0  0  0  0  0  0  0  0  0  0  0
    4.5724   -2.9535   -2.3480 C   0  0  0  0  0  0  0  0  0  0  0  0
    5.3856   -3.9229   -2.8811 N   0  0  0  0  0  0  0  0  0  0  0  0
    6.3390   -4.0660   -1.9771 C   0  0  0  0  0  0  0  0  0  0  0  0
    6.1904   -3.2803   -0.8627 O   0  0  0  0  0  0  0  0  0  0  0  0
    5.0533   -2.5734   -1.1075 C   0  0  0  0  0  0  0  0  0  0  0  0
    4.4769   -1.6213   -0.2776 C   0  0  0  0  0  0  0  0  0  0  0  0
    7.5060   -4.9372   -1.9940 C   0  0  0  0  0  0  0  0  0  0  0  0
    8.6295   -4.6661   -1.1986 C   0  0  0  0  0  0  0  0  0  0  0  0
    9.7452   -5.5016   -1.2489 C   0  0  0  0  0  0  0  0  0  0  0  0
    9.7580   -6.6197   -2.0767 C   0  0  0  0  0  0  0  0  0  0  0  0
    8.6428   -6.8944   -2.8632 C   0  0  0  0  0  0  0  0  0  0  0  0
    7.5248   -6.0603   -2.8317 C   0  0  0  0  0  0  0  0  0  0  0  0
    8.6429   -8.2784   -3.8854 Cl  0  0  0  0  0  0  0  0  0  0  0  0
   11.1217   -5.1389   -0.2818 Cl  0  0  0  0  0  0  0  0  0  0  0  0
    3.1045   -0.9107    1.6658 H   0  0  0  0  0  0  0  0  0  0  0  0
    1.9186   -0.8441   -2.4266 H   0  0  0  0  0  0  0  0  0  0  0  0
    3.0334   -2.5840   -3.8268 H   0  0  0  0  0  0  0  0  0  0  0  0
    4.9406   -1.3557    0.6629 H   0  0  0  0  0  0  0  0  0  0  0  0
    8.6451   -3.7939   -0.5481 H   0  0  0  0  0  0  0  0  0  0  0  0
   10.6288   -7.2681   -2.1110 H   0  0  0  0  0  0  0  0  0  0  0  0
    6.6619   -6.2854   -3.4573 H   0  0  0  0  0  0  0  0  0  0  0  0
  1  2  1  0  0  0  0
  1 21  1  0  0  0  0
  2  3  2  0  0  0  0
  2  4  1  0  0  0  0
  4  5  1  0  0  0  0
  4 12  2  0  0  0  0
  5  6  2  0  0  0  0
  5 22  1  0  0  0  0
  6  7  1  0  0  0  0
  6 23  1  0  0  0  0
  7  8  1  0  0  0  0
  7 11  2  0  0  0  0
  8  9  2  0  0  0  0
  9 10  1  0  0  0  0
  9 13  1  0  0  0  0
 10 11  1  0  0  0  0
 11 12  1  0  0  0  0
 12 24  1  0  0  0  0
 13 14  1  0  0  0  0
 13 18  2  0  0  0  0
 14 15  2  0  0  0  0
 14 25  1  0  0  0  0
 15 16  1  0  0  0  0
 15 20  1  0  0  0  0
 16 17  2  0  0  0  0
 16 26  1  0  0  0  0
 17 18  1  0  0  0  0
 17 19  1  0  0  0  0
 18 27  1  0  0  0  0
M  END
$$$$
