@<TRIPOS>MOLECULE
*****
 27 29 0 0 0
SMALL
GASTEIGER

@<TRIPOS>ATOM
      1 O          -6.8560   -0.2490   -0.0030 O.3     1  UNL1       -0.4771
      2 O          -5.9240    1.7660   -0.0080 O.2     1  UNL1       -0.2451
      3 C          -4.2550   -1.4100    0.0050 C.ar    1  UNL1       -0.0455
      4 C          -3.0060   -1.9550    0.0040 C.ar    1  UNL1       -0.0318
      5 C           4.3140    0.2140   -0.0010 C.ar    1  UNL1       -0.0250
      6 C           2.3780   -1.1980   -0.0000 C.ar    1  UNL1       -0.0310
      7 C           2.1320    1.2040    0.0020 C.ar    1  UNL1       -0.0310
      8 C          -3.3070    0.8220    0.0000 C.ar    1  UNL1       -0.0032
      9 N          -0.5500   -1.3630    0.0020 N.ar    1  UNL1       -0.2089
     10 O          -0.7930    0.7990    0.0040 O.2     1  UNL1       -0.4353
     11 C          -5.7780    0.5600   -0.0040 C.2     1  UNL1        0.3369
     12 C           3.7510   -1.0510   -0.0020 C.ar    1  UNL1        0.0431
     13 C           3.5060    1.3380    0.0000 C.ar    1  UNL1        0.0431
     14 C          -4.4220   -0.0180    0.0010 C.ar    1  UNL1        0.0624
     15 C           1.5580   -0.0690    0.0010 C.ar    1  UNL1        0.0397
     16 C           0.0880   -0.2190    0.0020 C.ar    1  UNL1        0.2285
     17 C          -1.8790   -1.1240    0.0030 C.ar    1  UNL1        0.1099
     18 C          -2.0380    0.2730    0.0040 C.ar    1  UNL1        0.1565
     19 CL          4.7730   -2.4540   -0.0040 Cl      1  UNL1       -0.0835
     20 CL          4.2220    2.9200    0.0010 Cl      1  UNL1       -0.0835
     21 H          -6.5717   -1.1555    0.0003 H       1  UNL1        0.2954
     22 H          -5.1136   -2.0485    0.0089 H       1  UNL1        0.0626
     23 H          -2.8865   -3.0183    0.0040 H       1  UNL1        0.0640
     24 H           5.3784    0.3232   -0.0010 H       1  UNL1        0.0647
     25 H           1.9437   -2.1759    0.0008 H       1  UNL1        0.0640
     26 H           1.5084    2.0735    0.0043 H       1  UNL1        0.0640
     27 H          -3.4337    1.8845   -0.0038 H       1  UNL1        0.0663
@<TRIPOS>BOND
     1     1    11    1
     2     1    21    1
     3     2    11    2
     4     3     4   ar
     5     3    14   ar
     6     3    22    1
     7     4    17   ar
     8     4    23    1
     9     5    12   ar
    10     5    13   ar
    11     5    24    1
    12     6    15   ar
    13     6    12   ar
    14     6    25    1
    15     7    15   ar
    16     7    13   ar
    17     7    26    1
    18     8    18   ar
    19     8    14   ar
    20     8    27    1
    21     9    16   ar
    22     9    17   ar
    23    10    16   ar
    24    10    18   ar
    25    11    14    1
    26    12    19    1
    27    13    20    1
    28    15    16    1
    29    17    18   ar
