@<TRIPOS>MOLECULE
*****
 27 29 0 0 0
SMALL
GASTEIGER

@<TRIPOS>ATOM
      1 O           2.7154   -0.0819    1.3370 O.3     1  UNL1       -0.4771
      2 C           2.6069    0.0393   -0.0022 C.2     1  UNL1        0.3369
      3 O           1.9652    0.9241   -0.5387 O.2     1  UNL1       -0.2451
      4 C           3.3099   -1.0181   -0.7742 C.ar    1  UNL1        0.0624
      5 C           2.8046   -1.3545   -2.0451 C.ar    1  UNL1       -0.0455
      6 C           3.4231   -2.3310   -2.8468 C.ar    1  UNL1       -0.0318
      7 C           4.5724   -2.9535   -2.3480 C.ar    1  UNL1        0.1099
      8 N           5.3856   -3.9229   -2.8811 N.ar    1  UNL1       -0.2089
      9 C           6.3390   -4.0660   -1.9771 C.ar    1  UNL1        0.2285
     10 O           6.1904   -3.2803   -0.8627 O.2     1  UNL1       -0.4353
     11 C           5.0533   -2.5734   -1.1075 C.ar    1  UNL1        0.1565
     12 C           4.4769   -1.6213   -0.2776 C.ar    1  UNL1       -0.0032
     13 C           7.5060   -4.9372   -1.9940 C.ar    1  UNL1        0.0397
     14 C           8.6295   -4.6661   -1.1986 C.ar    1  UNL1       -0.0310
     15 C           9.7452   -5.5016   -1.2489 C.ar    1  UNL1        0.0431
     16 C           9.7580   -6.6197   -2.0767 C.ar    1  UNL1       -0.0250
     17 C           8.6428   -6.8944   -2.8632 C.ar    1  UNL1        0.0431
     18 C           7.5248   -6.0603   -2.8317 C.ar    1  UNL1       -0.0310
     19 CL          8.6429   -8.2784   -3.8854 Cl      1  UNL1       -0.0835
     20 CL         11.1217   -5.1389   -0.2818 Cl      1  UNL1       -0.0835
     21 H           3.1045   -0.9107    1.6658 H       1  UNL1        0.2954
     22 H           1.9186   -0.8441   -2.4266 H       1  UNL1        0.0626
     23 H           3.0334   -2.5840   -3.8268 H       1  UNL1        0.0640
     24 H           4.9406   -1.3557    0.6629 H       1  UNL1        0.0663
     25 H           8.6451   -3.7939   -0.5481 H       1  UNL1        0.0640
     26 H          10.6288   -7.2681   -2.1110 H       1  UNL1        0.0647
     27 H           6.6619   -6.2854   -3.4573 H       1  UNL1        0.0640
@<TRIPOS>BOND
     1     1     2    1
     2     1    21    1
     3     2     3    2
     4     2     4    1
     5     4     5   ar
     6     4    12   ar
     7     5     6   ar
     8     5    22    1
     9     6     7   ar
    10     6    23    1
    11     7     8   ar
    12     7    11   ar
    13     8     9   ar
    14     9    10   ar
    15     9    13    1
    16    10    11   ar
    17    11    12   ar
    18    12    24    1
    19    13    14   ar
    20    13    18   ar
    21    14    15   ar
    22    14    25    1
    23    15    16   ar
    24    15    20    1
    25    16    17   ar
    26    16    26    1
    27    17    18   ar
    28    17    19    1
    29    18    27    1
