@<TRIPOS>MOLECULE
*****
 31 32 0 0 0
SMALL
GASTEIGER

@<TRIPOS>ATOM
      1 O           1.4269   -0.1683    0.0787 O.2     1  UNL1       -0.2866
      2 C           2.6533   -0.0776    0.0561 C.2     1  UNL1        0.1935
      3 C           3.2697    1.2886    0.0527 C.ar    1  UNL1        0.0324
      4 C           4.6346    1.5278   -0.1538 C.ar    1  UNL1        0.0304
      5 C           5.1376    2.8408   -0.0998 C.ar    1  UNL1        0.3184
      6 N           6.5794    3.0325   -0.1718 N.pl3   1  UNL1        0.0836
      7 O           7.3024    2.1337    0.2712 O.2     1  UNL1        0.0416
      8 O           6.9802    4.1086   -0.6462 O.co2   1  UNL1       -0.5759
      9 C           4.2882    3.9322    0.0684 C.ar    1  UNL1        0.2370
     10 O           4.6746    5.2468    0.0921 O.3     1  UNL1       -0.4989
     11 C           2.9279    3.6872    0.2284 C.ar    1  UNL1        0.1659
     12 O           2.0638    4.7340    0.3890 O.3     1  UNL1       -0.5031
     13 C           2.4169    2.3907    0.2323 C.ar    1  UNL1       -0.0053
     14 C           3.4375   -1.3391   -0.0248 C.ar    1  UNL1        0.0223
     15 C           2.9012   -2.3898   -0.7803 C.ar    1  UNL1       -0.0507
     16 C           3.6218   -3.5731   -0.9610 C.ar    1  UNL1       -0.0582
     17 C           4.8905   -3.7203   -0.3915 C.ar    1  UNL1       -0.0504
     18 C           5.3965   -2.6950    0.4164 C.ar    1  UNL1       -0.0582
     19 C           4.6606   -1.5245    0.6253 C.ar    1  UNL1       -0.0507
     20 C           5.7101   -4.9529   -0.6385 C.3     1  UNL1       -0.0397
     21 H           5.3256    0.7176   -0.3648 H       1  UNL1        0.0694
     22 H           5.6062    5.3238   -0.2082 H       1  UNL1        0.2925
     23 H           2.6180    5.5401    0.3605 H       1  UNL1        0.2923
     24 H           1.3453    2.2477    0.3651 H       1  UNL1        0.0662
     25 H           1.9196   -2.2876   -1.2404 H       1  UNL1        0.0625
     26 H           3.1875   -4.3716   -1.5592 H       1  UNL1        0.0620
     27 H           6.3719   -2.8033    0.8874 H       1  UNL1        0.0620
     28 H           5.0668   -0.7732    1.2965 H       1  UNL1        0.0625
     29 H           5.1755   -5.6719   -1.2677 H       1  UNL1        0.0278
     30 H           5.9509   -5.4457    0.3084 H       1  UNL1        0.0278
     31 H           6.6394   -4.6859   -1.1526 H       1  UNL1        0.0278
@<TRIPOS>UNITY_ATOM_ATTR
6 1
charge 1
8 1
charge -1
@<TRIPOS>BOND
     1     1     2    2
     2     2     3    1
     3     2    14    1
     4     3     4   ar
     5     3    13   ar
     6     4     5   ar
     7     4    21    1
     8     5     6    1
     9     5     9   ar
    10     6     7    2
    11     6     8    1
    12     9    10    1
    13     9    11   ar
    14    10    22    1
    15    11    12    1
    16    11    13   ar
    17    12    23    1
    18    13    24    1
    19    14    15   ar
    20    14    19   ar
    21    15    16   ar
    22    15    25    1
    23    16    17   ar
    24    16    26    1
    25    17    18   ar
    26    17    20    1
    27    18    19   ar
    28    18    27    1
    29    19    28    1
    30    20    29    1
    31    20    30    1
    32    20    31    1
