@<TRIPOS>MOLECULE
TOL
 31 32 0 0 0
SMALL
GASTEIGER

@<TRIPOS>ATOM
      1 O           0.9774    0.7272    2.5337 O.2     1  UNL1       -0.2866
      2 O          -2.6151    2.8978   -0.9622 O.3     1  UNL1       -0.5031
      3 O          -4.1665    0.6166   -1.0593 O.3     1  UNL1       -0.4989
      4 O          -2.7562   -2.8526    0.5331 O.co2   1  UNL1       -0.5759
      5 O          -4.3612   -1.7694   -0.5012 O.2     1  UNL1        0.0416
      6 N          -3.2267   -1.8045    0.0313 N.pl3   1  UNL1        0.0836
      7 C          -0.4428    0.5106    0.6879 C.ar    1  UNL1        0.0324
      8 C           2.1154    0.1659    0.5689 C.ar    1  UNL1        0.0223
      9 C           0.9102    0.4770    1.3211 C.2     1  UNL1        0.1935
     10 C          -1.1849   -0.6470    0.6595 C.ar    1  UNL1        0.0304
     11 C          -0.8914    1.6983    0.1587 C.ar    1  UNL1       -0.0053
     12 C          -2.4478   -0.6151    0.0681 C.ar    1  UNL1        0.3184
     13 C          -2.1544    1.7301   -0.4327 C.ar    1  UNL1        0.1659
     14 C           4.4275   -0.4301   -0.8739 C.ar    1  UNL1       -0.0504
     15 C           2.0333   -0.1152   -0.7948 C.ar    1  UNL1       -0.0507
     16 C           3.3534    0.1490    1.2113 C.ar    1  UNL1       -0.0507
     17 C          -2.9326    0.5733   -0.4780 C.ar    1  UNL1        0.2370
     18 C           3.1894   -0.4133   -1.5161 C.ar    1  UNL1       -0.0582
     19 C           4.5095   -0.1490    0.4899 C.ar    1  UNL1       -0.0582
     20 C           5.6635   -0.7497   -1.6453 C.3     1  UNL1       -0.0397
     21 H          -0.7765   -1.5551    1.0947 H       1  UNL1        0.0694
     22 H          -0.2835    2.5978    0.1954 H       1  UNL1        0.0662
     23 H           1.0911   -0.1128   -1.3343 H       1  UNL1        0.0625
     24 H           3.4446    0.3648    2.2726 H       1  UNL1        0.0625
     25 H           3.1133   -0.6291   -2.5786 H       1  UNL1        0.0620
     26 H           5.4686   -0.1573    1.0010 H       1  UNL1        0.0620
     27 H           6.4101   -1.2390   -1.0105 H       1  UNL1        0.0278
     28 H           5.4472   -1.4353   -2.4717 H       1  UNL1        0.0278
     29 H           6.0981    0.1675   -2.0549 H       1  UNL1        0.0278
     30 H          -3.2938    2.7073   -1.6299 H       1  UNL1        0.2923
     31 H          -4.5072    1.5254   -1.0340 H       1  UNL1        0.2925
@<TRIPOS>UNITY_ATOM_ATTR
4 1
charge -1
6 1
charge 1
@<TRIPOS>BOND
     1     1     9    2
     2     2    13    1
     3     2    30    1
     4     3    17    1
     5     3    31    1
     6     4     6    1
     7     5     6    2
     8     6    12    1
     9     7     9    1
    10     7    10   ar
    11     7    11   ar
    12     8     9    1
    13     8    15   ar
    14     8    16   ar
    15    10    12   ar
    16    10    21    1
    17    11    13   ar
    18    11    22    1
    19    12    17   ar
    20    13    17   ar
    21    14    18   ar
    22    14    19   ar
    23    14    20    1
    24    15    18   ar
    25    15    23    1
    26    16    19   ar
    27    16    24    1
    28    18    25    1
    29    19    26    1
    30    20    27    1
    31    20    28    1
    32    20    29    1
