
 OpenBabel07072517583D

 31 32  0  0  0  0  0  0  0  0999 V2000
    1.4269   -0.1683    0.0787 O   0  0  0  0  0  0  0  0  0  0  0  0
    2.6533   -0.0776    0.0561 C   0  0  0  0  0  0  0  0  0  0  0  0
    3.2697    1.2886    0.0527 C   0  0  0  0  0  0  0  0  0  0  0  0
    4.6346    1.5278   -0.1538 C   0  0  0  0  0  0  0  0  0  0  0  0
    5.1376    2.8408   -0.0998 C   0  0  0  0  0  0  0  0  0  0  0  0
    6.5794    3.0325   -0.1718 N   0  3  0  0  0  0  0  0  0  0  0  0
    7.3024    2.1337    0.2712 O   0  0  0  0  0  0  0  0  0  0  0  0
    6.9802    4.1086   -0.6462 O   0  5  0  0  0  0  0  0  0  0  0  0
    4.2882    3.9322    0.0684 C   0  0  0  0  0  0  0  0  0  0  0  0
    4.6746    5.2468    0.0921 O   0  0  0  0  0  0  0  0  0  0  0  0
    2.9279    3.6872    0.2284 C   0  0  0  0  0  0  0  0  0  0  0  0
    2.0638    4.7340    0.3890 O   0  0  0  0  0  0  0  0  0  0  0  0
    2.4169    2.3907    0.2323 C   0  0  0  0  0  0  0  0  0  0  0  0
    3.4375   -1.3391   -0.0248 C   0  0  0  0  0  0  0  0  0  0  0  0
    2.9012   -2.3898   -0.7803 C   0  0  0  0  0  0  0  0  0  0  0  0
    3.6218   -3.5731   -0.9610 C   0  0  0  0  0  0  0  0  0  0  0  0
    4.8905   -3.7203   -0.3915 C   0  0  0  0  0  0  0  0  0  0  0  0
    5.3965   -2.6950    0.4164 C   0  0  0  0  0  0  0  0  0  0  0  0
    4.6606   -1.5245    0.6253 C   0  0  0  0  0  0  0  0  0  0  0  0
    5.7101   -4.9529   -0.6385 C   0  0  0  0  0  0  0  0  0  0  0  0
    5.3256    0.7176   -0.3648 H   0  0  0  0  0  0  0  0  0  0  0  0
    5.6062    5.3238   -0.2082 H   0  0  0  0  0  0  0  0  0  0  0  0
    2.6180    5.5401    0.3605 H   0  0  0  0  0  0  0  0  0  0  0  0
    1.3453    2.2477    0.3651 H   0  0  0  0  0  0  0  0  0  0  0  0
    1.9196   -2.2876   -1.2404 H   0  0  0  0  0  0  0  0  0  0  0  0
    3.1875   -4.3716   -1.5592 H   0  0  0  0  0  0  0  0  0  0  0  0
    6.3719   -2.8033    0.8874 H   0  0  0  0  0  0  0  0  0  0  0  0
    5.0668   -0.7732    1.2965 H   0  0  0  0  0  0  0  0  0  0  0  0
    5.1755   -5.6719   -1.2677 H   0  0  0  0  0  0  0  0  0  0  0  0
    5.9509   -5.4457    0.3084 H   0  0  0  0  0  0  0  0  0  0  0  0
    6.6394   -4.6859   -1.1526 H   0  0  0  0  0  0  0  0  0  0  0  0
  1  2  2  0  0  0  0
  2  3  1  0  0  0  0
  2 14  1  0  0  0  0
  3  4  1  0  0  0  0
  3 13  2  0  0  0  0
  4  5  2  0  0  0  0
  4 21  1  0  0  0  0
  5  6  1  0  0  0  0
  5  9  1  0  0  0  0
  6  7  2  0  0  0  0
  6  8  1  0  0  0  0
  9 10  1  0  0  0  0
  9 11  2  0  0  0  0
 10 22  1  0  0  0  0
 11 12  1  0  0  0  0
 11 13  1  0  0  0  0
 12 23  1  0  0  0  0
 13 24  1  0  0  0  0
 14 15  1  0  0  0  0
 14 19  2  0  0  0  0
 15 16  2  0  0  0  0
 15 25  1  0  0  0  0
 16 17  1  0  0  0  0
 16 26  1  0  0  0  0
 17 18  2  0  0  0  0
 17 20  1  0  0  0  0
 18 19  1  0  0  0  0
 18 27  1  0  0  0  0
 19 28  1  0  0  0  0
 20 29  1  0  0  0  0
 20 30  1  0  0  0  0
 20 31  1  0  0  0  0
M  CHG  2   6   1   8  -1
M  END
$$$$
