
     RDKit          3D

 20 21  0  0  0  0  0  0  0  0999 V2000
   -8.0960   -0.1380   -0.2860 N   0  0  0  0  0  0  0  0  0  0  0  0
   -7.0630   -0.2350   -1.2070 C   0  0  0  0  0  0  0  0  0  0  0  0
   -6.3830   -1.5740   -1.1840 C   0  0  0  0  0  0  0  0  0  0  0  0
   -2.0480   -3.1070    0.2610 C   0  0  0  0  0  0  0  0  0  0  0  0
    5.2160    1.3980   -0.5950 C   0  0  0  0  0  0  0  0  0  0  0  0
    2.3410   -0.8320    0.5820 C   0  0  0  0  0  0  0  0  0  0  0  0
    3.4130    2.6840    0.1290 N   0  0  0  0  0  0  0  0  0  0  0  0
   -3.4490   -1.1450   -0.9450 C   0  0  0  0  0  0  0  0  0  0  0  0
   -1.3300   -2.0660   -0.3100 C   0  0  0  0  0  0  0  0  0  0  0  0
    0.1920   -2.0170   -0.2400 N   0  0  0  0  0  0  0  0  0  0  0  0
   -5.6650   -2.0470   -0.0200 C   0  0  0  0  0  0  0  0  0  0  0  0
    4.5770    0.2590   -0.1090 C   0  0  0  0  0  0  0  0  0  0  0  0
    4.7140    2.5710   -0.2780 C   0  0  0  0  0  0  0  0  0  0  0  0
   -4.1600   -2.0520   -0.2410 C   0  0  0  0  0  0  0  0  0  0  0  0
    3.2390    0.2440    0.2810 C   0  0  0  0  0  0  0  0  0  0  0  0
    1.0630   -1.0050   -0.1290 C   0  0  0  0  0  0  0  0  0  0  0  0
   -3.4390   -3.0800    0.3500 C   0  0  0  0  0  0  0  0  0  0  0  0
   -2.0490   -1.1490   -1.0230 C   0  0  0  0  0  0  0  0  0  0  0  0
    5.2460   -1.0140   -0.5300 C   0  0  0  0  0  0  0  0  0  0  0  0
    2.6470    1.4610    0.5450 C   0  0  0  0  0  0  0  0  0  0  0  0
  2  3  1  0
  2  1  1  0
  3 11  1  0
  4 17  2  0
  5 13  2  0
  5 12  1  0
  7 20  2  0
  8 14  2  0
  9 10  1  0
  9  4  1  0
 10 16  1  0
 12 15  2  0
 13  7  1  0
 14 11  1  0
 14 17  1  0
 15 20  1  0
 15  6  1  0
 16  6  2  3
 18  8  1  0
 18  9  2  0
 19 12  1  0
M  END
$$$$
