@<TRIPOS>MOLECULE
*****
 41 42 0 0 0
SMALL
GASTEIGER

@<TRIPOS>ATOM
      1 N           3.8435   -3.8300    1.0234 N.3     1  UNL1       -0.3300
      2 C           4.6559   -2.8623    0.2902 C.3     1  UNL1       -0.0066
      3 C           3.7611   -1.7774   -0.3194 C.3     1  UNL1       -0.0367
      4 C           4.5094   -0.8356   -1.2777 C.3     1  UNL1       -0.0265
      5 C           4.9551   -1.4074   -2.6071 C.ar    1  UNL1       -0.0472
      6 C           4.6377   -2.7019   -3.0181 C.ar    1  UNL1       -0.0568
      7 C           5.0983   -3.2060   -4.2338 C.ar    1  UNL1       -0.0403
      8 C           5.8562   -2.4290   -5.1135 C.ar    1  UNL1        0.0309
      9 C           6.1475   -1.1139   -4.7203 C.ar    1  UNL1       -0.0403
     10 C           5.7071   -0.6128   -3.4840 C.ar    1  UNL1       -0.0568
     11 N           6.3061   -2.9091   -6.3593 N.pl3   1  UNL1       -0.3205
     12 C           6.0544   -4.1357   -6.9096 C.2     1  UNL1       -0.0056
     13 C           6.4561   -4.6218   -8.0875 C.2     1  UNL1       -0.0391
     14 C           6.0440   -5.9780   -8.4674 C.ar    1  UNL1       -0.0028
     15 C           6.7875   -7.1217   -8.1321 C.ar    1  UNL1       -0.0404
     16 C           6.2757   -8.3770   -8.4852 C.ar    1  UNL1       -0.0401
     17 C           5.0488   -8.4491   -9.1281 C.ar    1  UNL1        0.0278
     18 N           4.3043   -7.3716   -9.4464 N.ar    1  UNL1       -0.2627
     19 C           4.8175   -6.1659   -9.1072 C.ar    1  UNL1        0.0350
     20 C           8.1121   -7.0343   -7.4277 C.3     1  UNL1       -0.0391
     21 H           4.4362   -4.6035    1.3250 H       1  UNL1        0.1182
     22 H           3.1494   -4.2395    0.3987 H       1  UNL1        0.1182
     23 H           5.2301   -3.3982   -0.4706 H       1  UNL1        0.0422
     24 H           5.3787   -2.4074    0.9749 H       1  UNL1        0.0422
     25 H           3.3448   -1.1755    0.4989 H       1  UNL1        0.0281
     26 H           2.9001   -2.2224   -0.8345 H       1  UNL1        0.0281
     27 H           5.3879   -0.4311   -0.7590 H       1  UNL1        0.0314
     28 H           3.8441    0.0097   -1.4965 H       1  UNL1        0.0314
     29 H           4.0321   -3.3653   -2.4086 H       1  UNL1        0.0621
     30 H           4.8385   -4.2332   -4.4615 H       1  UNL1        0.0636
     31 H           6.7198   -0.4616   -5.3732 H       1  UNL1        0.0636
     32 H           5.9541    0.4125   -3.2146 H       1  UNL1        0.0621
     33 H           6.8694   -2.2689   -6.9070 H       1  UNL1        0.1516
     34 H           5.4418   -4.7848   -6.2914 H       1  UNL1        0.0781
     35 H           7.0700   -4.0645   -8.7856 H       1  UNL1        0.0636
     36 H           6.8157   -9.2906   -8.2578 H       1  UNL1        0.0635
     37 H           4.6203   -9.4073   -9.4080 H       1  UNL1        0.0829
     38 H           4.1817   -5.3200   -9.3584 H       1  UNL1        0.0835
     39 H           8.0471   -6.3911   -6.5445 H       1  UNL1        0.0278
     40 H           8.8742   -6.6430   -8.1087 H       1  UNL1        0.0278
     41 H           8.4416   -8.0187   -7.0778 H       1  UNL1        0.0278
@<TRIPOS>BOND
     1     1     2    1
     2     1    21    1
     3     1    22    1
     4     2     3    1
     5     2    23    1
     6     2    24    1
     7     3     4    1
     8     3    25    1
     9     3    26    1
    10     4     5    1
    11     4    27    1
    12     4    28    1
    13     5     6   ar
    14     5    10   ar
    15     6     7   ar
    16     6    29    1
    17     7     8   ar
    18     7    30    1
    19     8     9   ar
    20     8    11    1
    21     9    10   ar
    22     9    31    1
    23    10    32    1
    24    11    12    1
    25    11    33    1
    26    12    13    2
    27    12    34    1
    28    13    14    1
    29    13    35    1
    30    14    15   ar
    31    14    19   ar
    32    15    16   ar
    33    15    20    1
    34    16    17   ar
    35    16    36    1
    36    17    18   ar
    37    17    37    1
    38    18    19   ar
    39    19    38    1
    40    20    39    1
    41    20    40    1
    42    20    41    1
