@<TRIPOS>MOLECULE
*****
 20 21 0 0 0
SMALL
GASTEIGER

@<TRIPOS>ATOM
      1 N          -8.0960   -0.1380   -0.2860 N.3     1  UNL1       -0.1314
      2 C          -7.0630   -0.2350   -1.2070 C.3     1  UNL1        0.1097
      3 C          -6.3830   -1.5740   -1.1840 C.3     1  UNL1        0.0252
      4 C          -2.0480   -3.1070    0.2610 C.ar    1  UNL1        0.0162
      5 C           5.2160    1.3980   -0.5950 C.ar    1  UNL1        0.0164
      6 C           2.3410   -0.8320    0.5820 C.2     1  UNL1        0.0191
      7 N           3.4130    2.6840    0.1290 N.ar    1  UNL1       -0.2423
      8 C          -3.4490   -1.1450   -0.9450 C.ar    1  UNL1       -0.0029
      9 C          -1.3300   -2.0660   -0.3100 C.ar    1  UNL1        0.0705
     10 N           0.1920   -2.0170   -0.2400 N.pl3   1  UNL1       -0.2112
     11 C          -5.6650   -2.0470   -0.0200 C.3     1  UNL1        0.0279
     12 C           4.5770    0.2590   -0.1090 C.ar    1  UNL1       -0.0188
     13 C           4.7140    2.5710   -0.2780 C.ar    1  UNL1        0.0986
     14 C          -4.1600   -2.0520   -0.2410 C.ar    1  UNL1       -0.0221
     15 C           3.2390    0.2440    0.2810 C.ar    1  UNL1        0.0166
     16 C           1.0630   -1.0050   -0.1290 C.2     1  UNL1        0.0857
     17 C          -3.4390   -3.0800    0.3500 C.ar    1  UNL1       -0.0029
     18 C          -2.0490   -1.1490   -1.0230 C.ar    1  UNL1        0.0162
     19 C           5.2460   -1.0140   -0.5300 C.3     1  UNL1        0.0311
     20 C           2.6470    1.4610    0.5450 C.ar    1  UNL1        0.0986
@<TRIPOS>BOND
     1     2     3    1
     2     2     1    1
     3     3    11    1
     4     4    17   ar
     5     5    13   ar
     6     5    12   ar
     7     7    20   ar
     8     8    14   ar
     9     9    10    1
    10     9     4   ar
    11    10    16    1
    12    12    15   ar
    13    13     7   ar
    14    14    11    1
    15    14    17   ar
    16    15    20   ar
    17    15     6    1
    18    16     6    2
    19    18     8   ar
    20    18     9   ar
    21    19    12    1
