
 OpenBabel07072517583D

 41 42  0  0  0  0  0  0  0  0999 V2000
    3.8435   -3.8300    1.0234 N   0  0  0  0  0  0  0  0  0  0  0  0
    4.6559   -2.8623    0.2902 C   0  0  0  0  0  0  0  0  0  0  0  0
    3.7611   -1.7774   -0.3194 C   0  0  0  0  0  0  0  0  0  0  0  0
    4.5094   -0.8356   -1.2777 C   0  0  0  0  0  0  0  0  0  0  0  0
    4.9551   -1.4074   -2.6071 C   0  0  0  0  0  0  0  0  0  0  0  0
    4.6377   -2.7019   -3.0181 C   0  0  0  0  0  0  0  0  0  0  0  0
    5.0983   -3.2060   -4.2338 C   0  0  0  0  0  0  0  0  0  0  0  0
    5.8562   -2.4290   -5.1135 C   0  0  0  0  0  0  0  0  0  0  0  0
    6.1475   -1.1139   -4.7203 C   0  0  0  0  0  0  0  0  0  0  0  0
    5.7071   -0.6128   -3.4840 C   0  0  0  0  0  0  0  0  0  0  0  0
    6.3061   -2.9091   -6.3593 N   0  0  0  0  0  0  0  0  0  0  0  0
    6.0544   -4.1357   -6.9096 C   0  0  0  0  0  0  0  0  0  0  0  0
    6.4561   -4.6218   -8.0875 C   0  0  0  0  0  0  0  0  0  0  0  0
    6.0440   -5.9780   -8.4674 C   0  0  0  0  0  0  0  0  0  0  0  0
    6.7875   -7.1217   -8.1321 C   0  0  0  0  0  0  0  0  0  0  0  0
    6.2757   -8.3770   -8.4852 C   0  0  0  0  0  0  0  0  0  0  0  0
    5.0488   -8.4491   -9.1281 C   0  0  0  0  0  0  0  0  0  0  0  0
    4.3043   -7.3716   -9.4464 N   0  0  0  0  0  0  0  0  0  0  0  0
    4.8175   -6.1659   -9.1072 C   0  0  0  0  0  0  0  0  0  0  0  0
    8.1121   -7.0343   -7.4277 C   0  0  0  0  0  0  0  0  0  0  0  0
    4.4362   -4.6035    1.3250 H   0  0  0  0  0  0  0  0  0  0  0  0
    3.1494   -4.2395    0.3987 H   0  0  0  0  0  0  0  0  0  0  0  0
    5.2301   -3.3982   -0.4706 H   0  0  0  0  0  0  0  0  0  0  0  0
    5.3787   -2.4074    0.9749 H   0  0  0  0  0  0  0  0  0  0  0  0
    3.3448   -1.1755    0.4989 H   0  0  0  0  0  0  0  0  0  0  0  0
    2.9001   -2.2224   -0.8345 H   0  0  0  0  0  0  0  0  0  0  0  0
    5.3879   -0.4311   -0.7590 H   0  0  0  0  0  0  0  0  0  0  0  0
    3.8441    0.0097   -1.4965 H   0  0  0  0  0  0  0  0  0  0  0  0
    4.0321   -3.3653   -2.4086 H   0  0  0  0  0  0  0  0  0  0  0  0
    4.8385   -4.2332   -4.4615 H   0  0  0  0  0  0  0  0  0  0  0  0
    6.7198   -0.4616   -5.3732 H   0  0  0  0  0  0  0  0  0  0  0  0
    5.9541    0.4125   -3.2146 H   0  0  0  0  0  0  0  0  0  0  0  0
    6.8694   -2.2689   -6.9070 H   0  0  0  0  0  0  0  0  0  0  0  0
    5.4418   -4.7848   -6.2914 H   0  0  0  0  0  0  0  0  0  0  0  0
    7.0700   -4.0645   -8.7856 H   0  0  0  0  0  0  0  0  0  0  0  0
    6.8157   -9.2906   -8.2578 H   0  0  0  0  0  0  0  0  0  0  0  0
    4.6203   -9.4073   -9.4080 H   0  0  0  0  0  0  0  0  0  0  0  0
    4.1817   -5.3200   -9.3584 H   0  0  0  0  0  0  0  0  0  0  0  0
    8.0471   -6.3911   -6.5445 H   0  0  0  0  0  0  0  0  0  0  0  0
    8.8742   -6.6430   -8.1087 H   0  0  0  0  0  0  0  0  0  0  0  0
    8.4416   -8.0187   -7.0778 H   0  0  0  0  0  0  0  0  0  0  0  0
  1  2  1  0  0  0  0
  1 21  1  0  0  0  0
  1 22  1  0  0  0  0
  2  3  1  0  0  0  0
  2 23  1  0  0  0  0
  2 24  1  0  0  0  0
  3  4  1  0  0  0  0
  3 25  1  0  0  0  0
  3 26  1  0  0  0  0
  4  5  1  0  0  0  0
  4 27  1  0  0  0  0
  4 28  1  0  0  0  0
  5  6  1  0  0  0  0
  5 10  2  0  0  0  0
  6  7  2  0  0  0  0
  6 29  1  0  0  0  0
  7  8  1  0  0  0  0
  7 30  1  0  0  0  0
  8  9  2  0  0  0  0
  8 11  1  0  0  0  0
  9 10  1  0  0  0  0
  9 31  1  0  0  0  0
 10 32  1  0  0  0  0
 11 12  1  0  0  0  0
 11 33  1  0  0  0  0
 12 13  2  0  0  0  0
 12 34  1  0  0  0  0
 13 14  1  0  0  0  0
 13 35  1  0  0  0  0
 14 15  1  0  0  0  0
 14 19  2  0  0  0  0
 15 16  2  0  0  0  0
 15 20  1  0  0  0  0
 16 17  1  0  0  0  0
 16 36  1  0  0  0  0
 17 18  2  0  0  0  0
 17 37  1  0  0  0  0
 18 19  1  0  0  0  0
 19 38  1  0  0  0  0
 20 39  1  0  0  0  0
 20 40  1  0  0  0  0
 20 41  1  0  0  0  0
M  END
$$$$
