@<TRIPOS>MOLECULE
*****
 20 21 0 0 0
SMALL
GASTEIGER

@<TRIPOS>ATOM
      1 N          -8.0960   -0.1380   -0.2860 N.3     1  UNL1       -0.1314
      2 C          -7.0630   -0.2350   -1.2070 C.3     1  UNL1        0.1097
      3 C          -6.3830   -1.5740   -1.1840 C.3     1  UNL1        0.0252
      4 C          -2.0480   -3.1070    0.2610 C.ar    1  UNL1        0.0162
      5 C           5.2160    1.3980   -0.5950 C.ar    1  UNL1        0.0164
      6 C           2.3410   -0.8320    0.5820 C.2     1  UNL1        0.0191
      7 N           3.4130    2.6840    0.1290 N.ar    1  UNL1       -0.2423
      8 C          -3.4490   -1.1450   -0.9450 C.ar    1  UNL1       -0.0029
      9 C          -1.3300   -2.0660   -0.3100 C.ar    1  UNL1        0.0705
     10 N           0.1920   -2.0170   -0.2400 N.pl3   1  UNL1       -0.2112
     11 C          -5.6650   -2.0470   -0.0200 C.3     1  UNL1        0.0279
     12 C           4.5770    0.2590   -0.1090 C.ar    1  UNL1       -0.0188
     13 C           4.7140    2.5710   -0.2780 C.ar    1  UNL1        0.0986
     14 C          -4.1600   -2.0520   -0.2410 C.ar    1  UNL1       -0.0221
     15 C           3.2390    0.2440    0.2810 C.ar    1  UNL1        0.0166
     16 C           1.0630   -1.0050   -0.1290 C.2     1  UNL1        0.0857
     17 C          -3.4390   -3.0800    0.3500 C.ar    1  UNL1       -0.0029
     18 C          -2.0490   -1.1490   -1.0230 C.ar    1  UNL1        0.0162
     19 C           5.2460   -1.0140   -0.5300 C.3     1  UNL1        0.0311
     20 C           2.6470    1.4610    0.5450 C.ar    1  UNL1        0.0986
@<TRIPOS>BOND
     1     2     3    1
     2     2     1    1
     3     3    11    1
     4     4    17   ar
     5     5    13   ar
     6     5    12   ar
     7     7    20   ar
     8     8    14   ar
     9     9    10    1
    10     9     4   ar
    11    10    16    1
    12    12    15   ar
    13    13     7   ar
    14    14    11    1
    15    14    17   ar
    16    15    20   ar
    17    15     6    1
    18    16     6    2
    19    18     8   ar
    20    18     9   ar
    21    19    12    1
@<TRIPOS>MOLECULE
*****
 20 21 0 0 0
SMALL
GASTEIGER

@<TRIPOS>ATOM
      1 C          -7.3630   -2.2480    0.7880 C.3     1  UNL1        0.1122
      2 C          -7.5870   -0.1950   -0.5340 C.3     1  UNL1        0.1122
      3 C          -4.5560   -2.1060   -0.2900 C.ar    1  UNL1        0.0142
      4 C          -3.2260   -2.0210   -0.7050 C.ar    1  UNL1       -0.0020
      5 C           4.1700    1.0400    0.4540 C.3     1  UNL1        0.0010
      6 C           2.8730    0.6590    0.2510 C.3     1  UNL1        0.0130
      7 C           3.1760   -0.4960   -1.8460 C.3     1  UNL1        0.0130
      8 C          -4.9160    0.0980   -0.9380 C.ar    1  UNL1        0.0142
      9 C           0.9630    0.1150   -1.0970 C.1     1  UNL1       -0.0917
     10 C          -1.3210   -0.7080   -1.6280 C.3     1  UNL1        0.1023
     11 N          -6.7050   -1.0930    0.1900 N.pl3   1  UNL1       -0.3041
     12 C           5.4120   -1.4490   -2.2060 C.3     1  UNL1        0.0000
     13 C           5.2190    0.4280   -0.4710 C.3     1  UNL1        0.0001
     14 C          -5.4080   -1.0270   -0.3850 C.ar    1  UNL1        0.0479
     15 C           2.3430    0.5410   -1.0970 C.3     1  UNL1        0.0641
     16 C          -0.1060   -0.3400   -1.3270 C.1     1  UNL1       -0.0863
     17 C          -3.5300    0.2550   -1.3500 C.ar    1  UNL1       -0.0020
     18 C          -2.6940   -0.8340   -1.1820 C.ar    1  UNL1       -0.0091
     19 C           4.5730   -0.5440   -1.4210 C.3     1  UNL1        0.0010
     20 C           4.5960    2.1660    1.2120 C.3     1  UNL1        0.0000
@<TRIPOS>BOND
     1     2    11    1
     2     4     3   ar
     3     5    20    1
     4     6     5    1
     5     7    19    1
     6     7    15    1
     7     8    14   ar
     8    10    16    1
     9    10    18    1
    10    11     1    1
    11    13     5    1
    12    14     3   ar
    13    14    11    1
    14    15     9    1
    15    15     6    1
    16    16     9    3
    17    17    18   ar
    18    17     8   ar
    19    18     4   ar
    20    19    12    1
    21    19    13    1
@<TRIPOS>MOLECULE
*****
 20 21 0 0 0
SMALL
GASTEIGER

@<TRIPOS>ATOM
      1 N          -7.0100    0.5880    0.2450 N.pl3   1  UNL1        0.2047
      2 N          -5.7960    2.4350   -0.4180 N.pl3   1  UNL1        0.2047
      3 C          -4.9400   -0.9340   -0.5960 C.ar    1  UNL1        0.0080
      4 C          -3.8430   -1.7360   -1.1100 C.ar    1  UNL1       -0.0001
      5 S           4.3070    1.6660    0.8670 S.3     1  UNL1       -0.1244
      6 C           4.0420   -0.0090    0.3370 C.3     1  UNL1        0.1319
      7 N           1.7660    0.7310   -0.5840 N.am    1  UNL1       -0.2765
      8 C          -3.3710    1.0080   -0.2370 C.ar    1  UNL1        0.0042
      9 C           0.5230    0.2200   -1.2840 C.2     1  UNL1        0.2301
     10 O           0.7320   -0.5150   -2.2700 O.2     1  UNL1       -0.2745
     11 C          -5.8470    1.1710   -0.1150 C.2     1  UNL1        0.4766
     12 C           5.1220   -0.7900   -0.2630 C.1     1  UNL1       -0.0661
     13 C           2.2380    2.0700   -0.8830 C.3     1  UNL1        0.1051
     14 C          -4.7020    0.3770   -0.2500 C.ar    1  UNL1        0.0972
     15 C           2.7310   -0.3730   -0.3350 C.3     1  UNL1        0.1173
     16 C          -0.7800    0.5720   -0.5600 C.3     1  UNL1        0.1116
     17 C          -2.5100   -1.0870   -1.1280 C.ar    1  UNL1       -0.0038
     18 C          -2.2730    0.1550   -0.6790 C.ar    1  UNL1       -0.0128
     19 C           6.0660   -1.4250   -0.6830 C.1     1  UNL1       -0.0133
     20 C           2.9580    2.6620    0.4240 C.3     1  UNL1        0.0800
@<TRIPOS>BOND
     1     2    11    2
     2     3    14   ar
     3     4     3   ar
     4     6    12    1
     5     6     5    1
     6     7    15    1
     7     9     7   am
     8     9    16    1
     9    10     9    2
    10    11     1    1
    11    13     7    1
    12    13    20    1
    13    14     8   ar
    14    14    11    1
    15    15     6    1
    16    17     4   ar
    17    17    18   ar
    18    18    16    1
    19    18     8   ar
    20    19    12    3
    21    20     5    1
@<TRIPOS>MOLECULE
*****
 20 20 0 0 0
SMALL
GASTEIGER

@<TRIPOS>ATOM
      1 C          -6.5520    0.7460   -1.2020 C.3     1  UNL1        0.0004
      2 C          -5.5730    0.8690   -2.2920 C.3     1  UNL1        0.0004
      3 C          -4.1130   -1.7840    0.2340 C.3     1  UNL1        0.1864
      4 O          -5.2820   -2.4360    0.0960 O.3     1  UNL1       -0.2201
      5 C           5.5470    0.7690    0.2740 C.ar    1  UNL1        0.0296
      6 C           3.9280   -0.8900    0.0340 C.ar    1  UNL1       -0.0041
      7 C           3.1930    1.4200   -0.1890 C.ar    1  UNL1        0.0254
      8 C          -2.8590    0.5180   -0.3300 C.2     1  UNL1       -0.0065
      9 C           1.5170   -0.4340   -0.5820 C.3     1  UNL1        0.0480
     10 C           1.0590   -0.9560    1.8440 C.3     1  UNL1        0.0237
     11 C          -5.4110   -0.1070   -1.1740 C.3     1  UNL1        0.0066
     12 C           5.1430   -0.5570    0.4810 C.ar    1  UNL1        0.0020
     13 C           4.4630    1.7940   -0.0960 C.ar    1  UNL1        0.1398
     14 C          -3.9760   -0.5060   -0.7840 C.3     1  UNL1        0.0563
     15 C           2.8710    0.0810   -0.1490 C.ar    1  UNL1       -0.0182
     16 C           0.5700   -0.8010    0.5590 C.3     1  UNL1        0.0969
     17 N          -0.7820   -0.8770    0.1450 N.pl3   1  UNL1       -0.2381
     18 C          -1.3830    0.4470    0.1090 C.2     1  UNL1        0.0755
     19 C           6.2120   -4.5450    1.0310 C.3     2  UNL2        0.0000
     20 F           4.9370    2.9320   -0.3830 F       1  UNL1       -0.2042
@<TRIPOS>BOND
     1     1    11    1
     2     2     1    1
     3     2    11    1
     4     4     3    1
     5     5    12   ar
     6     6    12   ar
     7     7    15   ar
     8     7    13   ar
     9     8    18    2
    10     9    15    1
    11     9    16    1
    12    11    14    1
    13    13     5   ar
    14    14     8    1
    15    14     3    1
    16    15     6   ar
    17    16    10    1
    18    17    16    1
    19    18    17    1
    20    20    13    1
@<TRIPOS>MOLECULE
*****
 20 22 0 0 0
SMALL
GASTEIGER

@<TRIPOS>ATOM
      1 N          -7.0760   -0.2470    0.9200 N.2     1  UNL1       -0.0465
      2 N          -6.6270    0.8260    0.2160 N.2     1  UNL1       -0.1466
      3 C          -4.7100   -0.2250    0.9340 C.2     1  UNL1        0.1105
      4 C          -3.3430   -0.5400    0.9530 C.2     1  UNL1        0.0189
      5 C           6.0730    1.2970    0.5250 C.3     1  UNL1        0.0117
      6 C           4.3680   -1.5980    1.1150 C.3     1  UNL1        0.0017
      7 C           2.6760    1.8240    1.0420 C.3     1  UNL1        0.0686
      8 C          -3.0140    1.6770   -0.0500 C.2     1  UNL1       -0.0022
      9 S           1.2820   -0.1890    2.1960 S.3     1  UNL1       -0.1131
     10 C          -0.0010   -0.2750    1.0280 C.2     1  UNL1        0.0309
     11 N          -5.9380   -0.9760    1.2870 N.2     1  UNL1       -0.1310
     12 C           4.1350   -0.1020    0.8650 C.3     1  UNL1        0.0211
     13 C           4.7590    0.7470   -0.2440 C.3     1  UNL1        0.0485
     14 C          -5.2510    0.8740    0.1660 C.3     1  UNL1        0.1902
     15 C           2.6780    0.2850    1.2910 C.3     1  UNL1        0.0635
     16 C          -1.2110    0.6450    1.1710 C.2     1  UNL1        0.0067
     17 C          -4.4260    1.8050   -0.3460 C.2     1  UNL1        0.0057
     18 C          -2.5370    0.5180    0.4690 C.2     1  UNL1        0.0016
     19 C           5.5650   -2.3730    0.5200 C.3     1  UNL1        0.0001
     20 S           3.8370    2.3420   -0.1100 S.3     1  UNL1       -0.1402
@<TRIPOS>BOND
     1     1    11    1
     2     2     1    2
     3     3     4    1
     4     3    11    2
     5     7    15    1
     6     8    18    1
     7    10    16    2
     8    10     9    1
     9    12     6    1
    10    12    15    1
    11    13    20    1
    12    13     5    1
    13    13    12    1
    14    14    17    1
    15    14     2    1
    16    14     3    1
    17    15     9    1
    18    17     8    2
    19    18     4    2
    20    18    16    1
    21    19     6    1
    22    20     7    1
@<TRIPOS>MOLECULE
*****
 20 21 0 0 0
SMALL
GASTEIGER

@<TRIPOS>ATOM
      1 C          -7.3330   -0.7530    0.6180 C.ar    1  UNL1        0.0072
      2 C          -5.9590   -0.8810    0.2290 C.ar    1  UNL1        0.0032
      3 S          -7.1200    0.2700   -1.6750 S.2     1  UNL1       -0.0903
      4 O          -3.0330   -2.0340   -0.8640 O.2     1  UNL1       -0.2725
      5 O           3.3120    1.8360   -0.7420 O.3     1  UNL1       -0.3492
      6 S           3.8370   -1.3470   -1.3190 S.3     1  UNL1       -0.0474
      7 C           1.9710    1.9570   -0.8030 C.3     1  UNL1        0.1671
      8 C          -4.4080   -0.2510   -1.7550 C.3     1  UNL1        0.1201
      9 N           0.1900    0.4480   -0.8140 N.am    1  UNL1       -0.1834
     10 O          -1.4070    0.7220    0.8060 O.2     1  UNL1       -0.2487
     11 C          -8.0440   -0.1220   -0.3290 C.ar    1  UNL1        0.0351
     12 O           3.5180    0.1270    0.9810 O.3     1  UNL1       -0.3393
     13 C           1.2210    1.0880    0.1870 C.3     1  UNL1        0.1559
     14 C          -5.6840   -0.4090   -0.9770 C.ar    1  UNL1        0.0165
     15 C           2.0810   -0.0990    0.7480 C.3     1  UNL1        0.1675
     16 C          -1.1310    0.4100   -0.3040 C.2     1  UNL1        0.3460
     17 N          -2.0560   -0.0260   -1.2380 N.am    1  UNL1       -0.1259
     18 C          -3.2250   -0.8240   -1.0630 C.2     1  UNL1        0.2541
     19 C           4.5320   -0.4930    0.1560 C.3     1  UNL1        0.2104
     20 C           2.7550    3.0550   -0.3370 C.3     1  UNL1        0.1734
@<TRIPOS>BOND
     1     2     1   ar
     2     3    14   ar
     3     3    11   ar
     4     5    20    1
     5     6    19    1
     6     7     5    1
     7     7    20    1
     8     7    13    1
     9     8    18    1
    10     8    14    1
    11     9    16   am
    12     9    13    1
    13    11     1   ar
    14    13    15    1
    15    14     2   ar
    16    15    12    1
    17    16    10    2
    18    17    18   am
    19    17    16   am
    20    18     4    2
    21    19    12    1
@<TRIPOS>MOLECULE
*****
 20 20 0 0 0
SMALL
GASTEIGER

@<TRIPOS>ATOM
      1 C          -6.0500   -1.0060   -1.7760 C.3     1  UNL1        0.1152
      2 C          -8.9810    3.9450    1.6090 C.3     2  UNL2        0.0000
      3 N          -5.4860   -1.4980   -0.4930 N.am    1  UNL1       -0.2726
      4 C          -1.7850   -1.6460   -3.2790 C.ar    1  UNL1        0.0008
      5 C           4.1410    0.2320   -0.3790 C.3     1  UNL1        0.1937
      6 C           1.5760    0.3480   -0.5020 C.1     1  UNL1       -0.0666
      7 C           3.0500    0.7120   -0.4650 C.3     1  UNL1        0.1717
      8 O          -3.8790   -1.9010    1.0480 O.2     1  UNL1       -0.2699
      9 C          -0.6520   -0.9530   -2.6090 C.ar    1  UNL1        0.0082
     10 C          -0.7450   -0.6220   -1.2230 C.ar    1  UNL1        0.0418
     11 C          -6.4580   -1.7210    0.6020 C.3     1  UNL1        0.1152
     12 N           5.0260    1.1470   -0.6930 N.3     1  UNL1       -0.1799
     13 N           3.0590    2.0390   -0.1050 N.3     1  UNL1       -0.1849
     14 C          -4.1300   -1.7620   -0.1800 C.2     1  UNL1        0.2491
     15 C           0.4270    0.0710   -0.7050 C.1     1  UNL1       -0.0629
     16 C          -1.8800   -0.9310   -0.5240 C.ar    1  UNL1        0.0128
     17 C          -3.0080   -1.9290   -2.4710 C.ar    1  UNL1        0.0046
     18 C          -3.0490   -1.6160   -1.1230 C.ar    1  UNL1        0.0542
     19 N           4.3540   -1.1270   -0.1780 N.3     1  UNL1       -0.1110
     20 C           4.3890    2.2610   -0.1690 C.3     1  UNL1        0.1805
@<TRIPOS>BOND
     1     1     3    1
     2     3    14   am
     3     3    11    1
     4     4     9   ar
     5     4    17   ar
     6     5    19    1
     7     7     6    1
     8     7     5    1
     9     7    13    1
    10     9    10   ar
    11    10    15    1
    12    10    16   ar
    13    12     5    1
    14    12    20    1
    15    14     8    2
    16    15     6    3
    17    17    18   ar
    18    18    16   ar
    19    18    14    1
    20    20    13    1
@<TRIPOS>MOLECULE
*****
 20 21 0 0 0
SMALL
GASTEIGER

@<TRIPOS>ATOM
      1 C          -7.5450   -0.1130   -1.7320 C.3     1  UNL1        0.0129
      2 S          -9.2250    1.5820    0.5550 S.3     1  UNL1       -0.0831
      3 C          -6.5800    0.6670   -1.1920 C.3     1  UNL1        0.0190
      4 C          -3.2810   -0.8280   -0.9400 C.3     1  UNL1        0.0670
      5 C           4.7300    0.4430    0.4890 C.3     1  UNL1        0.0108
      6 C           6.0980   -1.1260   -0.9860 C.3     1  UNL1        0.0000
      7 S           1.6050    1.5620   -0.0260 S.3     1  UNL1       -0.1384
      8 C          -4.6970   -0.4440   -0.4120 C.2     1  UNL1        0.1508
      9 C          -1.8470    0.3190    0.7270 C.3     1  UNL1        0.0031
     10 C          -0.7940   -0.0990   -1.0390 C.3     1  UNL1        0.1631
     11 C          -7.7000    1.0060   -0.2180 C.3     1  UNL1        0.0584
     12 C           5.3400   -0.9660    0.3850 C.3     1  UNL1        0.0008
     13 C           3.6090   -0.1320    1.4660 C.3     1  UNL1        0.0116
     14 C          -5.2620    0.6400   -1.3110 C.3     1  UNL1        0.0654
     15 C           0.3990    0.3110   -0.3490 C.3     1  UNL1        0.0903
     16 O          -0.6910   -0.3310   -2.4600 O.3     1  UNL1       -0.2222
     17 C          -2.2390    0.2730   -0.6010 C.3     1  UNL1        0.0387
     18 O          -5.2830   -0.6810    0.5690 O.2     1  UNL1       -0.2961
     19 C           5.3900   -2.0600    1.5090 C.3     1  UNL1        0.0000
     20 C           2.8950    0.9190    0.7830 C.3     1  UNL1        0.0478
@<TRIPOS>BOND
     1     1     3    1
     2     1    11    1
     3     3    14    1
     4     3    11    1
     5     4    17    1
     6     4     8    1
     7     5    12    1
     8     5    20    1
     9     5    13    1
    10     6    12    1
    11     8    18    2
    12    10    16    1
    13    10    17    1
    14    10    15    1
    15    11     2    1
    16    12    19    1
    17    14     8    1
    18    15     7    1
    19    17     9    1
    20    20     7    1
    21    20    13    1
@<TRIPOS>MOLECULE
*****
 20 21 0 0 0
SMALL
GASTEIGER

@<TRIPOS>ATOM
      1 C          -5.5510    0.8930   -1.2230 C.3     1  UNL1        0.0555
      2 O          -6.6190   -0.8780    0.0620 O.3     1  UNL1       -0.2204
      3 C          -4.6270   -0.0280   -2.0710 C.3     1  UNL1        0.0814
      4 C          -4.4510    0.7580   -3.4060 C.3     1  UNL1        0.0217
      5 C           5.5750   -0.4380   -0.2690 C.2     1  UNL1       -0.0217
      6 C           2.8750   -1.1930   -1.2420 C.2     1  UNL1        0.0159
      7 C           2.9590    1.4840    1.4380 C.3     1  UNL1        0.0281
      8 N          -3.2710   -0.2690   -1.5320 N.am    1  UNL1       -0.2758
      9 C          -0.9820   -0.0560   -1.2360 C.2     1  UNL1        0.0757
     10 N           1.2400   -0.0310   -0.3240 N.pl3   1  UNL1       -0.2116
     11 C          -5.7130    0.2650    0.1940 C.3     1  UNL1        0.1838
     12 C           4.0600   -1.8680   -1.5550 C.2     1  UNL1        0.0010
     13 C           3.3720    0.5260    0.3920 C.2     1  UNL1       -0.0243
     14 C          -4.2670   -1.2510   -1.1600 C.3     1  UNL1        0.1118
     15 C           2.4920   -0.2450   -0.3620 C.2     1  UNL1        0.0629
     16 C           0.2840   -0.3760   -1.2690 C.2     1  UNL1        0.0903
     17 C          -2.0620   -0.4820   -2.1240 C.2     1  UNL1        0.2505
     18 O          -1.9420   -1.0190   -3.2100 O.2     1  UNL1       -0.2699
     19 C           5.3490   -1.5800   -1.0810 C.2     1  UNL1       -0.0042
     20 C           4.7570    0.3730    0.3520 C.3     1  UNL1        0.0493
@<TRIPOS>BOND
     1     1    11    1
     2     2    11    1
     3     3     4    1
     4     3     8    1
     5     3     1    1
     6     3    14    1
     7     5    20    1
     8     6    15    1
     9     8    14    1
    10    12     6    2
    11    12    19    1
    12    13     7    1
    13    15    10    1
    14    15    13    2
    15    16     9    2
    16    16    10    1
    17    17     8   am
    18    17     9    1
    19    18    17    2
    20    19     5    2
    21    20    13    1
@<TRIPOS>MOLECULE
*****
 20 23 0 0 0
SMALL
GASTEIGER

@<TRIPOS>ATOM
      1 O          -7.3560   -1.4340   -1.1210 O.3     1  UNL1       -0.3511
      2 C          -8.1200   -0.3570   -0.4680 C.3     1  UNL1        0.1741
      3 C          -3.8260   -2.0840   -1.1150 C.3     1  UNL1        0.0346
      4 C          -2.9670   -1.1530   -0.9260 C.3     1  UNL1        0.1422
      5 C           3.0930    1.0830   -0.6680 C.3     1  UNL1        0.0161
      6 N           5.1120   -0.5980   -0.4900 N.3     1  UNL1       -0.2728
      7 C           3.2950   -1.6490   -1.2560 C.3     1  UNL1        0.0175
      8 O          -2.7550   -0.3140    0.6320 O.3     1  UNL1       -0.3538
      9 C           0.7120    0.4210   -0.3580 C.3     1  UNL1        0.0025
     10 C          -0.7220    0.3000    1.6850 C.3     1  UNL1        0.0025
     11 C          -5.9040   -1.1500   -1.0590 C.3     1  UNL1        0.1424
     12 C           4.6780   -2.4200   -1.8520 C.3     1  UNL1        0.0187
     13 C           4.4330   -0.5810    0.6710 C.3     1  UNL1        0.0868
     14 C          -5.0940   -2.1550   -0.4010 C.3     1  UNL1        0.0346
     15 C           1.7250    1.3220   -0.0120 C.3     1  UNL1        0.0015
     16 C           0.5710   -0.9990   -0.0600 C.3     1  UNL1        0.0025
     17 C          -0.6000   -0.3580    0.3090 C.3     1  UNL1        0.0274
     18 C          -1.7550   -0.3960   -0.4220 C.3     1  UNL1        0.1420
     19 C           5.7100   -1.6740   -1.2150 C.3     1  UNL1        0.0721
     20 C           3.7520   -0.1860   -0.5550 C.3     1  UNL1        0.0602
@<TRIPOS>BOND
     1     1    11    1
     2     1     2    1
     3     3    14    1
     4     4     3    1
     5     4    18    1
     6     4     8    1
     7     5    15    1
     8     6    19    1
     9     6    13    1
    10     7    20    1
    11     9    16    1
    12     9    15    1
    13     9    17    1
    14    11    14    1
    15    12     7    1
    16    12    19    1
    17    16    17    1
    18    17    10    1
    19    18    17    1
    20    18     8    1
    21    20     5    1
    22    20     6    1
    23    20    13    1
