
     RDKit          3D

 20 21  0  0  0  0  0  0  0  0999 V2000
   -8.0960   -0.1380   -0.2860 N   0  0  0  0  0  0  0  0  0  0  0  0
   -7.0630   -0.2350   -1.2070 C   0  0  0  0  0  0  0  0  0  0  0  0
   -6.3830   -1.5740   -1.1840 C   0  0  0  0  0  0  0  0  0  0  0  0
   -2.0480   -3.1070    0.2610 C   0  0  0  0  0  0  0  0  0  0  0  0
    5.2160    1.3980   -0.5950 C   0  0  0  0  0  0  0  0  0  0  0  0
    2.3410   -0.8320    0.5820 C   0  0  0  0  0  0  0  0  0  0  0  0
    3.4130    2.6840    0.1290 N   0  0  0  0  0  0  0  0  0  0  0  0
   -3.4490   -1.1450   -0.9450 C   0  0  0  0  0  0  0  0  0  0  0  0
   -1.3300   -2.0660   -0.3100 C   0  0  0  0  0  0  0  0  0  0  0  0
    0.1920   -2.0170   -0.2400 N   0  0  0  0  0  0  0  0  0  0  0  0
   -5.6650   -2.0470   -0.0200 C   0  0  0  0  0  0  0  0  0  0  0  0
    4.5770    0.2590   -0.1090 C   0  0  0  0  0  0  0  0  0  0  0  0
    4.7140    2.5710   -0.2780 C   0  0  0  0  0  0  0  0  0  0  0  0
   -4.1600   -2.0520   -0.2410 C   0  0  0  0  0  0  0  0  0  0  0  0
    3.2390    0.2440    0.2810 C   0  0  0  0  0  0  0  0  0  0  0  0
    1.0630   -1.0050   -0.1290 C   0  0  0  0  0  0  0  0  0  0  0  0
   -3.4390   -3.0800    0.3500 C   0  0  0  0  0  0  0  0  0  0  0  0
   -2.0490   -1.1490   -1.0230 C   0  0  0  0  0  0  0  0  0  0  0  0
    5.2460   -1.0140   -0.5300 C   0  0  0  0  0  0  0  0  0  0  0  0
    2.6470    1.4610    0.5450 C   0  0  0  0  0  0  0  0  0  0  0  0
  2  3  1  0
  2  1  1  0
  3 11  1  0
  4 17  4  0
  5 13  4  0
  5 12  4  0
  7 20  4  0
  8 14  4  0
  9 10  1  0
  9  4  4  0
 10 16  1  0
 12 15  4  0
 13  7  4  0
 14 11  1  0
 14 17  4  0
 15 20  4  0
 15  6  1  0
 16  6  2  3
 18  8  4  0
 18  9  4  0
 19 12  1  0
M  END
$$$$

     RDKit          3D

 20 21  0  0  0  0  0  0  0  0999 V2000
   -7.3630   -2.2480    0.7880 C   0  0  0  0  0  0  0  0  0  0  0  0
   -7.5870   -0.1950   -0.5340 C   0  0  0  0  0  0  0  0  0  0  0  0
   -4.5560   -2.1060   -0.2900 C   0  0  0  0  0  0  0  0  0  0  0  0
   -3.2260   -2.0210   -0.7050 C   0  0  0  0  0  0  0  0  0  0  0  0
    4.1700    1.0400    0.4540 C   0  0  0  0  0  0  0  0  0  0  0  0
    2.8730    0.6590    0.2510 C   0  0  0  0  0  0  0  0  0  0  0  0
    3.1760   -0.4960   -1.8460 C   0  0  0  0  0  0  0  0  0  0  0  0
   -4.9160    0.0980   -0.9380 C   0  0  0  0  0  0  0  0  0  0  0  0
    0.9630    0.1150   -1.0970 C   0  0  0  0  0  0  0  0  0  0  0  0
   -1.3210   -0.7080   -1.6280 C   0  0  0  0  0  0  0  0  0  0  0  0
   -6.7050   -1.0930    0.1900 N   0  0  0  0  0  0  0  0  0  0  0  0
    5.4120   -1.4490   -2.2060 C   0  0  0  0  0  0  0  0  0  0  0  0
    5.2190    0.4280   -0.4710 C   0  0  0  0  0  0  0  0  0  0  0  0
   -5.4080   -1.0270   -0.3850 C   0  0  0  0  0  0  0  0  0  0  0  0
    2.3430    0.5410   -1.0970 C   0  0  0  0  0  0  0  0  0  0  0  0
   -0.1060   -0.3400   -1.3270 C   0  0  0  0  0  0  0  0  0  0  0  0
   -3.5300    0.2550   -1.3500 C   0  0  0  0  0  0  0  0  0  0  0  0
   -2.6940   -0.8340   -1.1820 C   0  0  0  0  0  0  0  0  0  0  0  0
    4.5730   -0.5440   -1.4210 C   0  0  0  0  0  0  0  0  0  0  0  0
    4.5960    2.1660    1.2120 C   0  0  0  0  0  0  0  0  0  0  0  0
  2 11  1  0
  4  3  4  0
  5 20  1  0
  6  5  1  0
  7 19  1  0
  7 15  1  0
  8 14  4  0
 10 16  1  0
 10 18  1  0
 11  1  1  0
 13  5  1  0
 14  3  4  0
 14 11  1  0
 15  9  1  0
 15  6  1  0
 16  9  3  0
 17 18  4  0
 17  8  4  0
 18  4  4  0
 19 12  1  0
 19 13  1  0
M  END
$$$$

     RDKit          3D

 20 21  0  0  0  0  0  0  0  0999 V2000
   -7.0100    0.5880    0.2450 N   0  0  0  0  0  0  0  0  0  0  0  0
   -5.7960    2.4350   -0.4180 N   0  0  0  0  0  0  0  0  0  0  0  0
   -4.9400   -0.9340   -0.5960 C   0  0  0  0  0  0  0  0  0  0  0  0
   -3.8430   -1.7360   -1.1100 C   0  0  0  0  0  0  0  0  0  0  0  0
    4.3070    1.6660    0.8670 S   0  0  0  0  0  0  0  0  0  0  0  0
    4.0420   -0.0090    0.3370 C   0  0  0  0  0  0  0  0  0  0  0  0
    1.7660    0.7310   -0.5840 N   0  0  0  0  0  0  0  0  0  0  0  0
   -3.3710    1.0080   -0.2370 C   0  0  0  0  0  0  0  0  0  0  0  0
    0.5230    0.2200   -1.2840 C   0  0  0  0  0  0  0  0  0  0  0  0
    0.7320   -0.5150   -2.2700 O   0  0  0  0  0  0  0  0  0  0  0  0
   -5.8470    1.1710   -0.1150 C   0  0  0  0  0  0  0  0  0  0  0  0
    5.1220   -0.7900   -0.2630 C   0  0  0  0  0  0  0  0  0  0  0  0
    2.2380    2.0700   -0.8830 C   0  0  0  0  0  0  0  0  0  0  0  0
   -4.7020    0.3770   -0.2500 C   0  0  0  0  0  0  0  0  0  0  0  0
    2.7310   -0.3730   -0.3350 C   0  0  0  0  0  0  0  0  0  0  0  0
   -0.7800    0.5720   -0.5600 C   0  0  0  0  0  0  0  0  0  0  0  0
   -2.5100   -1.0870   -1.1280 C   0  0  0  0  0  0  0  0  0  0  0  0
   -2.2730    0.1550   -0.6790 C   0  0  0  0  0  0  0  0  0  0  0  0
    6.0660   -1.4250   -0.6830 C   0  0  0  0  0  0  0  0  0  0  0  0
    2.9580    2.6620    0.4240 C   0  0  0  0  0  0  0  0  0  0  0  0
  2 11  2  0
  3 14  4  0
  4  3  4  0
  6 12  1  0
  6  5  1  0
  7 15  1  0
  9  7  1  0
  9 16  1  0
 10  9  2  0
 11  1  1  0
 13  7  1  0
 13 20  1  0
 14  8  4  0
 14 11  1  0
 15  6  1  0
 17  4  4  0
 17 18  4  0
 18 16  1  0
 18  8  4  0
 19 12  3  0
 20  5  1  0
M  END
$$$$

     RDKit          3D

 20 20  0  0  0  0  0  0  0  0999 V2000
   -6.5520    0.7460   -1.2020 C   0  0  0  0  0  0  0  0  0  0  0  0
   -5.5730    0.8690   -2.2920 C   0  0  0  0  0  0  0  0  0  0  0  0
   -4.1130   -1.7840    0.2340 C   0  0  0  0  0  0  0  0  0  0  0  0
   -5.2820   -2.4360    0.0960 O   0  0  0  0  0  0  0  0  0  0  0  0
    5.5470    0.7690    0.2740 C   0  0  0  0  0  0  0  0  0  0  0  0
    3.9280   -0.8900    0.0340 C   0  0  0  0  0  0  0  0  0  0  0  0
    3.1930    1.4200   -0.1890 C   0  0  0  0  0  0  0  0  0  0  0  0
   -2.8590    0.5180   -0.3300 C   0  0  0  0  0  0  0  0  0  0  0  0
    1.5170   -0.4340   -0.5820 C   0  0  0  0  0  0  0  0  0  0  0  0
    1.0590   -0.9560    1.8440 C   0  0  0  0  0  0  0  0  0  0  0  0
   -5.4110   -0.1070   -1.1740 C   0  0  0  0  0  0  0  0  0  0  0  0
    5.1430   -0.5570    0.4810 C   0  0  0  0  0  0  0  0  0  0  0  0
    4.4630    1.7940   -0.0960 C   0  0  0  0  0  0  0  0  0  0  0  0
   -3.9760   -0.5060   -0.7840 C   0  0  0  0  0  0  0  0  0  0  0  0
    2.8710    0.0810   -0.1490 C   0  0  0  0  0  0  0  0  0  0  0  0
    0.5700   -0.8010    0.5590 C   0  0  0  0  0  0  0  0  0  0  0  0
   -0.7820   -0.8770    0.1450 N   0  0  0  0  0  0  0  0  0  0  0  0
   -1.3830    0.4470    0.1090 C   0  0  0  0  0  0  0  0  0  0  0  0
    6.2120   -4.5450    1.0310 C   0  0  0  0  0  0  0  0  0  0  0  0
    4.9370    2.9320   -0.3830 F   0  0  0  0  0  0  0  0  0  0  0  0
  1 11  1  0
  2  1  1  0
  2 11  1  0
  4  3  1  0
  5 12  4  0
  6 12  4  0
  7 15  4  0
  7 13  4  0
  8 18  2  3
  9 15  1  0
  9 16  1  0
 11 14  1  0
 13  5  4  0
 14  8  1  0
 14  3  1  0
 15  6  4  0
 16 10  1  0
 17 16  1  0
 18 17  1  0
 20 13  1  0
M  END
$$$$

     RDKit          3D

 20 22  0  0  0  0  0  0  0  0999 V2000
   -7.0760   -0.2470    0.9200 N   0  0  0  0  0  0  0  0  0  0  0  0
   -6.6270    0.8260    0.2160 N   0  0  0  0  0  0  0  0  0  0  0  0
   -4.7100   -0.2250    0.9340 C   0  0  0  0  0  0  0  0  0  0  0  0
   -3.3430   -0.5400    0.9530 C   0  0  0  0  0  0  0  0  0  0  0  0
    6.0730    1.2970    0.5250 C   0  0  0  0  0  0  0  0  0  0  0  0
    4.3680   -1.5980    1.1150 C   0  0  0  0  0  0  0  0  0  0  0  0
    2.6760    1.8240    1.0420 C   0  0  0  0  0  0  0  0  0  0  0  0
   -3.0140    1.6770   -0.0500 C   0  0  0  0  0  0  0  0  0  0  0  0
    1.2820   -0.1890    2.1960 S   0  0  0  0  0  0  0  0  0  0  0  0
   -0.0010   -0.2750    1.0280 C   0  0  0  0  0  0  0  0  0  0  0  0
   -5.9380   -0.9760    1.2870 N   0  0  0  0  0  0  0  0  0  0  0  0
    4.1350   -0.1020    0.8650 C   0  0  0  0  0  0  0  0  0  0  0  0
    4.7590    0.7470   -0.2440 C   0  0  0  0  0  0  0  0  0  0  0  0
   -5.2510    0.8740    0.1660 C   0  0  0  0  0  0  0  0  0  0  0  0
    2.6780    0.2850    1.2910 C   0  0  0  0  0  0  0  0  0  0  0  0
   -1.2110    0.6450    1.1710 C   0  0  0  0  0  0  0  0  0  0  0  0
   -4.4260    1.8050   -0.3460 C   0  0  0  0  0  0  0  0  0  0  0  0
   -2.5370    0.5180    0.4690 C   0  0  0  0  0  0  0  0  0  0  0  0
    5.5650   -2.3730    0.5200 C   0  0  0  0  0  0  0  0  0  0  0  0
    3.8370    2.3420   -0.1100 S   0  0  0  0  0  0  0  0  0  0  0  0
  1 11  1  0
  2  1  2  0
  3  4  1  0
  3 11  2  0
  7 15  1  0
  8 18  1  0
 10 16  2  3
 10  9  1  0
 12  6  1  0
 12 15  1  0
 13 20  1  0
 13  5  1  0
 13 12  1  0
 14 17  1  0
 14  2  1  0
 14  3  1  0
 15  9  1  0
 17  8  2  0
 18  4  2  0
 18 16  1  0
 19  6  1  0
 20  7  1  0
M  END
$$$$

     RDKit          3D

 20 21  0  0  0  0  0  0  0  0999 V2000
   -7.3330   -0.7530    0.6180 C   0  0  0  0  0  0  0  0  0  0  0  0
   -5.9590   -0.8810    0.2290 C   0  0  0  0  0  0  0  0  0  0  0  0
   -7.1200    0.2700   -1.6750 S   0  0  0  0  0  0  0  0  0  0  0  0
   -3.0330   -2.0340   -0.8640 O   0  0  0  0  0  0  0  0  0  0  0  0
    3.3120    1.8360   -0.7420 O   0  0  0  0  0  0  0  0  0  0  0  0
    3.8370   -1.3470   -1.3190 S   0  0  0  0  0  0  0  0  0  0  0  0
    1.9710    1.9570   -0.8030 C   0  0  0  0  0  0  0  0  0  0  0  0
   -4.4080   -0.2510   -1.7550 C   0  0  0  0  0  0  0  0  0  0  0  0
    0.1900    0.4480   -0.8140 N   0  0  0  0  0  0  0  0  0  0  0  0
   -1.4070    0.7220    0.8060 O   0  0  0  0  0  0  0  0  0  0  0  0
   -8.0440   -0.1220   -0.3290 C   0  0  0  0  0  0  0  0  0  0  0  0
    3.5180    0.1270    0.9810 O   0  0  0  0  0  0  0  0  0  0  0  0
    1.2210    1.0880    0.1870 C   0  0  0  0  0  0  0  0  0  0  0  0
   -5.6840   -0.4090   -0.9770 C   0  0  0  0  0  0  0  0  0  0  0  0
    2.0810   -0.0990    0.7480 C   0  0  0  0  0  0  0  0  0  0  0  0
   -1.1310    0.4100   -0.3040 C   0  0  0  0  0  0  0  0  0  0  0  0
   -2.0560   -0.0260   -1.2380 N   0  0  0  0  0  0  0  0  0  0  0  0
   -3.2250   -0.8240   -1.0630 C   0  0  0  0  0  0  0  0  0  0  0  0
    4.5320   -0.4930    0.1560 C   0  0  0  0  0  0  0  0  0  0  0  0
    2.7550    3.0550   -0.3370 C   0  0  0  0  0  0  0  0  0  0  0  0
  2  1  4  0
  3 14  4  0
  3 11  4  0
  5 20  1  0
  6 19  1  0
  7  5  1  0
  7 20  1  0
  7 13  1  0
  8 18  1  0
  8 14  1  0
  9 16  1  0
  9 13  1  0
 11  1  4  0
 13 15  1  0
 14  2  4  0
 15 12  1  0
 16 10  2  0
 17 18  1  0
 17 16  1  0
 18  4  2  0
 19 12  1  0
M  END
$$$$

     RDKit          3D

 20 20  0  0  0  0  0  0  0  0999 V2000
   -6.0500   -1.0060   -1.7760 C   0  0  0  0  0  0  0  0  0  0  0  0
   -8.9810    3.9450    1.6090 C   0  0  0  0  0  0  0  0  0  0  0  0
   -5.4860   -1.4980   -0.4930 N   0  0  0  0  0  0  0  0  0  0  0  0
   -1.7850   -1.6460   -3.2790 C   0  0  0  0  0  0  0  0  0  0  0  0
    4.1410    0.2320   -0.3790 C   0  0  0  0  0  0  0  0  0  0  0  0
    1.5760    0.3480   -0.5020 C   0  0  0  0  0  0  0  0  0  0  0  0
    3.0500    0.7120   -0.4650 C   0  0  0  0  0  0  0  0  0  0  0  0
   -3.8790   -1.9010    1.0480 O   0  0  0  0  0  0  0  0  0  0  0  0
   -0.6520   -0.9530   -2.6090 C   0  0  0  0  0  0  0  0  0  0  0  0
   -0.7450   -0.6220   -1.2230 C   0  0  0  0  0  0  0  0  0  0  0  0
   -6.4580   -1.7210    0.6020 C   0  0  0  0  0  0  0  0  0  0  0  0
    5.0260    1.1470   -0.6930 N   0  0  0  0  0  0  0  0  0  0  0  0
    3.0590    2.0390   -0.1050 N   0  0  0  0  0  0  0  0  0  0  0  0
   -4.1300   -1.7620   -0.1800 C   0  0  0  0  0  0  0  0  0  0  0  0
    0.4270    0.0710   -0.7050 C   0  0  0  0  0  0  0  0  0  0  0  0
   -1.8800   -0.9310   -0.5240 C   0  0  0  0  0  0  0  0  0  0  0  0
   -3.0080   -1.9290   -2.4710 C   0  0  0  0  0  0  0  0  0  0  0  0
   -3.0490   -1.6160   -1.1230 C   0  0  0  0  0  0  0  0  0  0  0  0
    4.3540   -1.1270   -0.1780 N   0  0  0  0  0  0  0  0  0  0  0  0
    4.3890    2.2610   -0.1690 C   0  0  0  0  0  0  0  0  0  0  0  0
  1  3  1  0
  3 14  1  0
  3 11  1  0
  4  9  4  0
  4 17  4  0
  5 19  1  0
  7  6  1  0
  7  5  1  0
  7 13  1  0
  9 10  4  0
 10 15  1  0
 10 16  4  0
 12  5  1  0
 12 20  1  0
 14  8  2  0
 15  6  3  0
 17 18  4  0
 18 16  4  0
 18 14  1  0
 20 13  1  0
M  END
$$$$

     RDKit          3D

 20 21  0  0  0  0  0  0  0  0999 V2000
   -7.5450   -0.1130   -1.7320 C   0  0  0  0  0  0  0  0  0  0  0  0
   -9.2250    1.5820    0.5550 S   0  0  0  0  0  0  0  0  0  0  0  0
   -6.5800    0.6670   -1.1920 C   0  0  0  0  0  0  0  0  0  0  0  0
   -3.2810   -0.8280   -0.9400 C   0  0  0  0  0  0  0  0  0  0  0  0
    4.7300    0.4430    0.4890 C   0  0  0  0  0  0  0  0  0  0  0  0
    6.0980   -1.1260   -0.9860 C   0  0  0  0  0  0  0  0  0  0  0  0
    1.6050    1.5620   -0.0260 S   0  0  0  0  0  0  0  0  0  0  0  0
   -4.6970   -0.4440   -0.4120 C   0  0  0  0  0  0  0  0  0  0  0  0
   -1.8470    0.3190    0.7270 C   0  0  0  0  0  0  0  0  0  0  0  0
   -0.7940   -0.0990   -1.0390 C   0  0  0  0  0  0  0  0  0  0  0  0
   -7.7000    1.0060   -0.2180 C   0  0  0  0  0  0  0  0  0  0  0  0
    5.3400   -0.9660    0.3850 C   0  0  0  0  0  0  0  0  0  0  0  0
    3.6090   -0.1320    1.4660 C   0  0  0  0  0  0  0  0  0  0  0  0
   -5.2620    0.6400   -1.3110 C   0  0  0  0  0  0  0  0  0  0  0  0
    0.3990    0.3110   -0.3490 C   0  0  0  0  0  0  0  0  0  0  0  0
   -0.6910   -0.3310   -2.4600 O   0  0  0  0  0  0  0  0  0  0  0  0
   -2.2390    0.2730   -0.6010 C   0  0  0  0  0  0  0  0  0  0  0  0
   -5.2830   -0.6810    0.5690 O   0  0  0  0  0  0  0  0  0  0  0  0
    5.3900   -2.0600    1.5090 C   0  0  0  0  0  0  0  0  0  0  0  0
    2.8950    0.9190    0.7830 C   0  0  0  0  0  0  0  0  0  0  0  0
  1  3  1  0
  1 11  1  0
  3 14  1  0
  3 11  1  0
  4 17  1  0
  4  8  1  0
  5 12  1  0
  5 20  1  0
  5 13  1  0
  6 12  1  0
  8 18  2  0
 10 16  1  0
 10 17  1  0
 10 15  1  0
 11  2  1  0
 12 19  1  0
 14  8  1  0
 15  7  1  0
 17  9  1  0
 20  7  1  0
 20 13  1  0
M  END
$$$$

     RDKit          3D

 20 21  0  0  0  0  0  0  0  0999 V2000
   -5.5510    0.8930   -1.2230 C   0  0  0  0  0  0  0  0  0  0  0  0
   -6.6190   -0.8780    0.0620 O   0  0  0  0  0  0  0  0  0  0  0  0
   -4.6270   -0.0280   -2.0710 C   0  0  0  0  0  0  0  0  0  0  0  0
   -4.4510    0.7580   -3.4060 C   0  0  0  0  0  0  0  0  0  0  0  0
    5.5750   -0.4380   -0.2690 C   0  0  0  0  0  0  0  0  0  0  0  0
    2.8750   -1.1930   -1.2420 C   0  0  0  0  0  0  0  0  0  0  0  0
    2.9590    1.4840    1.4380 C   0  0  0  0  0  0  0  0  0  0  0  0
   -3.2710   -0.2690   -1.5320 N   0  0  0  0  0  0  0  0  0  0  0  0
   -0.9820   -0.0560   -1.2360 C   0  0  0  0  0  0  0  0  0  0  0  0
    1.2400   -0.0310   -0.3240 N   0  0  0  0  0  0  0  0  0  0  0  0
   -5.7130    0.2650    0.1940 C   0  0  0  0  0  0  0  0  0  0  0  0
    4.0600   -1.8680   -1.5550 C   0  0  0  0  0  0  0  0  0  0  0  0
    3.3720    0.5260    0.3920 C   0  0  0  0  0  0  0  0  0  0  0  0
   -4.2670   -1.2510   -1.1600 C   0  0  0  0  0  0  0  0  0  0  0  0
    2.4920   -0.2450   -0.3620 C   0  0  0  0  0  0  0  0  0  0  0  0
    0.2840   -0.3760   -1.2690 C   0  0  0  0  0  0  0  0  0  0  0  0
   -2.0620   -0.4820   -2.1240 C   0  0  0  0  0  0  0  0  0  0  0  0
   -1.9420   -1.0190   -3.2100 O   0  0  0  0  0  0  0  0  0  0  0  0
    5.3490   -1.5800   -1.0810 C   0  0  0  0  0  0  0  0  0  0  0  0
    4.7570    0.3730    0.3520 C   0  0  0  0  0  0  0  0  0  0  0  0
  1 11  1  0
  2 11  1  0
  3  4  1  0
  3  8  1  0
  3  1  1  0
  3 14  1  0
  5 20  1  0
  6 15  1  0
  8 14  1  0
 12  6  2  0
 12 19  1  0
 13  7  1  0
 15 10  1  0
 15 13  2  0
 16  9  2  3
 16 10  1  0
 17  8  1  0
 17  9  1  0
 18 17  2  0
 19  5  2  0
 20 13  1  0
M  END
$$$$

     RDKit          3D

 20 23  0  0  0  0  0  0  0  0999 V2000
   -7.3560   -1.4340   -1.1210 O   0  0  0  0  0  0  0  0  0  0  0  0
   -8.1200   -0.3570   -0.4680 C   0  0  0  0  0  0  0  0  0  0  0  0
   -3.8260   -2.0840   -1.1150 C   0  0  0  0  0  0  0  0  0  0  0  0
   -2.9670   -1.1530   -0.9260 C   0  0  0  0  0  0  0  0  0  0  0  0
    3.0930    1.0830   -0.6680 C   0  0  0  0  0  0  0  0  0  0  0  0
    5.1120   -0.5980   -0.4900 N   0  0  0  0  0  0  0  0  0  0  0  0
    3.2950   -1.6490   -1.2560 C   0  0  0  0  0  0  0  0  0  0  0  0
   -2.7550   -0.3140    0.6320 O   0  0  0  0  0  0  0  0  0  0  0  0
    0.7120    0.4210   -0.3580 C   0  0  0  0  0  0  0  0  0  0  0  0
   -0.7220    0.3000    1.6850 C   0  0  0  0  0  0  0  0  0  0  0  0
   -5.9040   -1.1500   -1.0590 C   0  0  0  0  0  0  0  0  0  0  0  0
    4.6780   -2.4200   -1.8520 C   0  0  0  0  0  0  0  0  0  0  0  0
    4.4330   -0.5810    0.6710 C   0  0  0  0  0  0  0  0  0  0  0  0
   -5.0940   -2.1550   -0.4010 C   0  0  0  0  0  0  0  0  0  0  0  0
    1.7250    1.3220   -0.0120 C   0  0  0  0  0  0  0  0  0  0  0  0
    0.5710   -0.9990   -0.0600 C   0  0  0  0  0  0  0  0  0  0  0  0
   -0.6000   -0.3580    0.3090 C   0  0  0  0  0  0  0  0  0  0  0  0
   -1.7550   -0.3960   -0.4220 C   0  0  0  0  0  0  0  0  0  0  0  0
    5.7100   -1.6740   -1.2150 C   0  0  0  0  0  0  0  0  0  0  0  0
    3.7520   -0.1860   -0.5550 C   0  0  0  0  0  0  0  0  0  0  0  0
  1 11  1  0
  1  2  1  0
  3 14  1  0
  4  3  1  0
  4 18  1  0
  4  8  1  0
  5 15  1  0
  6 19  1  0
  6 13  1  0
  7 20  1  0
  9 16  1  0
  9 15  1  0
  9 17  1  0
 11 14  1  0
 12  7  1  0
 12 19  1  0
 16 17  1  0
 17 10  1  0
 18 17  1  0
 18  8  1  0
 20  5  1  0
 20  6  1  0
 20 13  1  0
M  END
$$$$
