@<TRIPOS>MOLECULE
DIF 
26 27 0 0 0
SMALL
USER_CHARGES
#CGenFF output mol2 file
@<TRIPOS>ATOM
1	F1    -1.4539     0.5010    -2.1801	F	1	UNL1    -0.2110
2	F2    -5.4044    -0.6384     0.1568	F	1	UNL1    -0.1960
3	O1     4.1226     1.3300     0.2247	O.3	1	UNL1    -0.5450
4	O2     2.8226    -2.5466     0.3592	O.3	1	UNL1    -0.5160
5	O3     4.4152    -1.2710    -0.6421	O.2	1	UNL1    -0.4320
6	C1     0.0587     0.4773     0.1874	C.ar	1	UNL1    -0.0020
7	C2    -1.3588     0.1880     0.1756	C.ar	1	UNL1     0.0430
8	C3     0.9831    -0.5552     0.0292	C.ar	1	UNL1    -0.1200
9	C4     0.5008     1.7893     0.3572	C.ar	1	UNL1    -0.1140
10	C5     2.3497    -0.2756     0.0409	C.ar	1	UNL1     0.2130
11	C6    -2.0693     0.2103    -1.0246	C.ar	1	UNL1     0.2440
12	C7    -2.0148    -0.1137     1.3691	C.ar	1	UNL1    -0.2220
13	C8     2.7917     1.0363     0.2106	C.ar	1	UNL1    -0.0250
14	C9     1.8673     2.0688     0.3687	C.ar	1	UNL1    -0.1120
15	C10    -3.4358    -0.0690    -1.0312	C.ar	1	UNL1    -0.2270
16	C11    -3.3813    -0.3929     1.3623	C.ar	1	UNL1    -0.2130
17	C12    -4.0919    -0.3705     0.1622	C.ar	1	UNL1     0.2940
18	C13     3.2985    -1.3679    -0.1258	C.2	1	UNL1     0.4600
19	H1     0.6235    -1.5721    -0.1157	H	1	UNL1     0.1150
20	H2    -0.2064     2.6060     0.4818	H	1	UNL1     0.1150
21	H3    -1.4762    -0.1355     2.3135	H	1	UNL1     0.1150
22	H4     2.1975     3.0956     0.5018	H	1	UNL1     0.1150
23	H5    -3.9893    -0.0511    -1.9653	H	1	UNL1     0.1940
24	H6    -3.8926    -0.6277     2.2913	H	1	UNL1     0.1770
25	H7     4.2354     2.2876     0.3526	H	1	UNL1     0.4200
26	H8     3.4678    -3.2763     0.2430	H	1	UNL1     0.4300
@<TRIPOS>BOND
1	1	11	1
2	2	17	1
3	3	13	1
4	3	25	1
5	4	18	1
6	4	26	1
7	5	18	2
8	6	7	1
9	6	8	2
10	6	9	1
11	7	11	2
12	7	12	1
13	8	10	1
14	8	19	1
15	9	14	2
16	9	20	1
17	10	13	2
18	10	18	1
19	11	15	1
20	12	16	2
21	12	21	1
22	13	14	1
23	14	22	1
24	15	17	2
25	15	23	1
26	16	17	1
27	16	24	1
