@<TRIPOS>MOLECULE
TOL 
31 32 0 0 0
SMALL
USER_CHARGES
#CGenFF output mol2 file
@<TRIPOS>ATOM
1	O1     0.9774     0.7272     2.5337	O.2	1	UNL1    -0.4490
2	O2    -2.6151     2.8978    -0.9622	O.3	1	UNL1    -0.5380
3	O3    -4.1665     0.6166    -1.0593	O.3	1	UNL1    -0.4930
4	O4    -2.7562    -2.8526     0.5331	O.co2	1	UNL1    -0.3110
5	O5    -4.3612    -1.7694    -0.5012	O.2	1	UNL1    -0.3110
6	N    -3.2267    -1.8045     0.0313	N.pl3	1	UNL1     0.2360
7	C1    -0.4428     0.5106     0.6879	C.ar	1	UNL1     0.1430
8	C2     2.1154     0.1659     0.5689	C.ar	1	UNL1     0.1240
9	C3     0.9102     0.4770     1.3211	C.2	1	UNL1     0.1770
10	C4    -1.1849    -0.6470     0.6595	C.ar	1	UNL1    -0.2070
11	C5    -0.8914     1.6983     0.1587	C.ar	1	UNL1    -0.1050
12	C6    -2.4478    -0.6151     0.0681	C.ar	1	UNL1     0.3150
13	C7    -2.1544     1.7301    -0.4327	C.ar	1	UNL1     0.1310
14	C8     4.4275    -0.4301    -0.8739	C.ar	1	UNL1     0.0280
15	C9     2.0333    -0.1152    -0.7948	C.ar	1	UNL1    -0.1260
16	C10     3.3534     0.1490     1.2113	C.ar	1	UNL1    -0.1260
17	C11    -2.9326     0.5733    -0.4780	C.ar	1	UNL1     0.1550
18	C12     3.1894    -0.4133    -1.5161	C.ar	1	UNL1    -0.1150
19	C13     4.5095    -0.1490     0.4899	C.ar	1	UNL1    -0.1150
20	C14     5.6635    -0.7497    -1.6453	C.3	1	UNL1    -0.2640
21	H1    -0.7765    -1.5551     1.0947	H	1	UNL1     0.1660
22	H2    -0.2835     2.5978     0.1954	H	1	UNL1     0.1150
23	H3     1.0911    -0.1128    -1.3343	H	1	UNL1     0.1150
24	H4     3.4446     0.3648     2.2726	H	1	UNL1     0.1150
25	H5     3.1133    -0.6291    -2.5786	H	1	UNL1     0.1150
26	H6     5.4686    -0.1573     1.0010	H	1	UNL1     0.1150
27	H7     6.4101    -1.2390    -1.0105	H	1	UNL1     0.0900
28	H8     5.4472    -1.4353    -2.4717	H	1	UNL1     0.0900
29	H9     6.0981     0.1675    -2.0549	H	1	UNL1     0.0900
30	H10    -3.2938     2.7073    -1.6299	H	1	UNL1     0.4200
31	H11    -4.5072     1.5254    -1.0340	H	1	UNL1     0.4200
@<TRIPOS>BOND
1	1	9	2
2	2	13	1
3	2	30	1
4	3	17	1
5	3	31	1
6	4	6	1
7	5	6	2
8	6	12	1
9	7	9	1
10	7	10	2
11	7	11	1
12	8	9	1
13	8	15	2
14	8	16	1
15	10	12	1
16	10	21	1
17	11	13	2
18	11	22	1
19	12	17	2
20	13	17	1
21	14	18	2
22	14	19	1
23	14	20	1
24	15	18	1
25	15	23	1
26	16	19	2
27	16	24	1
28	18	25	1
29	19	26	1
30	20	27	1
31	20	28	1
32	20	29	1
